44285867
  -OEChem-03242010093D

 57 58  0     1  0  0  0  0  0999 V2000
   -1.4694   -1.2261   -0.3155 O   0  0  0  0  0  0  0  0  0  0  0  0
   -0.0667    3.0590   -2.4961 O   0  0  0  0  0  0  0  0  0  0  0  0
   -3.0643    1.6806    0.0972 O   0  0  0  0  0  0  0  0  0  0  0  0
    0.6883   -2.1825   -2.4225 O   0  0  0  0  0  0  0  0  0  0  0  0
   -1.5708    2.2023    1.7825 O   0  0  0  0  0  0  0  0  0  0  0  0
   -1.6824   -1.1366    1.9812 O   0  0  0  0  0  0  0  0  0  0  0  0
    0.7793    0.0702   -1.8773 N   0  0  0  0  0  0  0  0  0  0  0  0
    0.4975    1.2193   -0.9644 C   0  0  2  0  0  0  0  0  0  0  0  0
   -0.6006    2.1653   -1.5197 C   0  0  1  0  0  0  0  0  0  0  0  0
    1.7923    1.9365   -0.5640 C   0  0  0  0  0  0  0  0  0  0  0  0
   -0.0897   -1.6250   -0.2320 C   0  0  1  0  0  0  0  0  0  0  0  0
   -0.0184   -3.1254    0.0433 C   0  0  0  0  0  0  0  0  0  0  0  0
    0.4924   -1.2791   -1.6010 C   0  0  0  0  0  0  0  0  0  0  0  0
   -1.2349    3.0555   -0.4440 C   0  0  0  0  0  0  0  0  0  0  0  0
    2.5630    1.1480    0.4554 C   0  0  0  0  0  0  0  0  0  0  0  0
    1.3198    0.3657   -3.2039 C   0  0  0  0  0  0  0  0  0  0  0  0
   -0.8338   -3.9001   -0.9897 C   0  0  0  0  0  0  0  0  0  0  0  0
    1.4324   -3.6017    0.0492 C   0  0  0  0  0  0  0  0  0  0  0  0
   -3.5828   -0.6401    0.5500 C   0  0  2  0  0  0  0  0  0  0  0  0
   -1.9583    2.2766    0.6237 C   0  0  0  0  0  0  0  0  0  0  0  0
   -2.1458   -1.0302    0.8531 C   0  0  0  0  0  0  0  0  0  0  0  0
   -3.8305    0.8130    0.9563 C   0  0  0  0  0  0  0  0  0  0  0  0
    2.3308    1.3518    1.8156 C   0  0  0  0  0  0  0  0  0  0  0  0
    3.5109    0.2118    0.0423 C   0  0  0  0  0  0  0  0  0  0  0  0
   -4.5257   -1.5914    1.2782 C   0  0  0  0  0  0  0  0  0  0  0  0
    3.0466    0.6195    2.7628 C   0  0  0  0  0  0  0  0  0  0  0  0
    4.2266   -0.5204    0.9895 C   0  0  0  0  0  0  0  0  0  0  0  0
    3.9945   -0.3166    2.3497 C   0  0  0  0  0  0  0  0  0  0  0  0
    0.0704    0.8016   -0.0539 H   0  0  0  0  0  0  0  0  0  0  0  0
   -1.3781    1.5643   -2.0074 H   0  0  0  0  0  0  0  0  0  0  0  0
    1.5665    2.9137   -0.1204 H   0  0  0  0  0  0  0  0  0  0  0  0
    2.4349    2.1700   -1.4189 H   0  0  0  0  0  0  0  0  0  0  0  0
    0.4411   -1.0841    0.5575 H   0  0  0  0  0  0  0  0  0  0  0  0
   -0.4582   -3.3238    1.0284 H   0  0  0  0  0  0  0  0  0  0  0  0
   -1.9514    3.7541   -0.8955 H   0  0  0  0  0  0  0  0  0  0  0  0
   -0.4885    3.6984    0.0357 H   0  0  0  0  0  0  0  0  0  0  0  0
    0.5450    0.8593   -3.7965 H   0  0  0  0  0  0  0  0  0  0  0  0
    1.6237   -0.5394   -3.7366 H   0  0  0  0  0  0  0  0  0  0  0  0
    2.1951    1.0122   -3.1296 H   0  0  0  0  0  0  0  0  0  0  0  0
   -0.2969   -4.1268   -1.9142 H   0  0  0  0  0  0  0  0  0  0  0  0
   -1.7869   -3.4259   -1.2409 H   0  0  0  0  0  0  0  0  0  0  0  0
   -1.0855   -4.8812   -0.5661 H   0  0  0  0  0  0  0  0  0  0  0  0
    1.4771   -4.6493    0.3687 H   0  0  0  0  0  0  0  0  0  0  0  0
    2.0265   -3.0204    0.7625 H   0  0  0  0  0  0  0  0  0  0  0  0
    1.9263   -3.5478   -0.9239 H   0  0  0  0  0  0  0  0  0  0  0  0
   -3.7481   -0.7446   -0.5301 H   0  0  0  0  0  0  0  0  0  0  0  0
   -0.8085    3.5601   -2.8759 H   0  0  0  0  0  0  0  0  0  0  0  0
   -4.8836    1.0734    0.8037 H   0  0  0  0  0  0  0  0  0  0  0  0
   -3.6026    0.9849    2.0146 H   0  0  0  0  0  0  0  0  0  0  0  0
    1.5925    2.0756    2.1505 H   0  0  0  0  0  0  0  0  0  0  0  0
    3.7040    0.0441   -1.0137 H   0  0  0  0  0  0  0  0  0  0  0  0
   -4.4156   -1.5114    2.3654 H   0  0  0  0  0  0  0  0  0  0  0  0
   -4.3186   -2.6310    1.0016 H   0  0  0  0  0  0  0  0  0  0  0  0
   -5.5688   -1.3742    1.0258 H   0  0  0  0  0  0  0  0  0  0  0  0
    2.8648    0.7773    3.8218 H   0  0  0  0  0  0  0  0  0  0  0  0
    4.9642   -1.2498    0.6678 H   0  0  0  0  0  0  0  0  0  0  0  0
    4.5513   -0.8873    3.0871 H   0  0  0  0  0  0  0  0  0  0  0  0
  1 11  1  0  0  0  0
  1 21  1  0  0  0  0
  2  9  1  0  0  0  0
  2 47  1  0  0  0  0
  3 20  1  0  0  0  0
  3 22  1  0  0  0  0
  4 13  2  0  0  0  0
  5 20  2  0  0  0  0
  6 21  2  0  0  0  0
  7  8  1  0  0  0  0
  7 13  1  0  0  0  0
  7 16  1  0  0  0  0
  8  9  1  0  0  0  0
  8 10  1  0  0  0  0
  8 29  1  0  0  0  0
  9 14  1  0  0  0  0
  9 30  1  0  0  0  0
 10 15  1  0  0  0  0
 10 31  1  0  0  0  0
 10 32  1  0  0  0  0
 11 12  1  0  0  0  0
 11 13  1  0  0  0  0
 11 33  1  0  0  0  0
 12 17  1  0  0  0  0
 12 18  1  0  0  0  0
 12 34  1  0  0  0  0
 14 20  1  0  0  0  0
 14 35  1  0  0  0  0
 14 36  1  0  0  0  0
 15 23  2  0  0  0  0
 15 24  1  0  0  0  0
 16 37  1  0  0  0  0
 16 38  1  0  0  0  0
 16 39  1  0  0  0  0
 17 40  1  0  0  0  0
 17 41  1  0  0  0  0
 17 42  1  0  0  0  0
 18 43  1  0  0  0  0
 18 44  1  0  0  0  0
 18 45  1  0  0  0  0
 19 21  1  0  0  0  0
 19 22  1  0  0  0  0
 19 25  1  0  0  0  0
 19 46  1  0  0  0  0
 22 48  1  0  0  0  0
 22 49  1  0  0  0  0
 23 26  1  0  0  0  0
 23 50  1  0  0  0  0
 24 27  2  0  0  0  0
 24 51  1  0  0  0  0
 25 52  1  0  0  0  0
 25 53  1  0  0  0  0
 25 54  1  0  0  0  0
 26 28  2  0  0  0  0
 26 55  1  0  0  0  0
 27 28  1  0  0  0  0
 27 56  1  0  0  0  0
 28 57  1  0  0  0  0
M  END
> <PUBCHEM_COMPOUND_CID>
44285867

> <PUBCHEM_CONFORMER_RMSD>
0.8

> <PUBCHEM_CONFORMER_DIVERSEORDER>
1
9
14
15
17
21
28
2
10
20
26
16
25
11
12
4
22
3
18
27
5
19
23
7
24
13
8
6

> <PUBCHEM_MMFF94_PARTIAL_CHARGES>
30
1 -0.43
10 0.14
11 0.34
13 0.57
14 0.06
15 -0.14
16 0.3
19 0.06
2 -0.68
20 0.66
21 0.66
22 0.28
23 -0.15
24 -0.15
26 -0.15
27 -0.15
28 -0.15
3 -0.43
4 -0.57
47 0.4
5 -0.57
50 0.15
51 0.15
55 0.15
56 0.15
57 0.15
6 -0.57
7 -0.66
8 0.3
9 0.28

> <PUBCHEM_EFFECTIVE_ROTOR_COUNT>
4.8

> <PUBCHEM_PHARMACOPHORE_FEATURES>
7
1 2 acceptor
1 2 donor
1 4 acceptor
1 5 acceptor
1 6 acceptor
3 12 17 18 hydrophobe
6 15 23 24 26 27 28 rings

> <PUBCHEM_HEAVY_ATOM_COUNT>
28

> <PUBCHEM_ATOM_DEF_STEREO_COUNT>
4

> <PUBCHEM_ATOM_UDEF_STEREO_COUNT>
0

> <PUBCHEM_BOND_DEF_STEREO_COUNT>
0

> <PUBCHEM_BOND_UDEF_STEREO_COUNT>
0

> <PUBCHEM_ISOTOPIC_ATOM_COUNT>
0

> <PUBCHEM_COMPONENT_COUNT>
1

> <PUBCHEM_CACTVS_TAUTO_COUNT>
8

> <PUBCHEM_CONFORMER_ID>
02A3BFAB00000001

> <PUBCHEM_MMFF94_ENERGY>
70.6407

> <PUBCHEM_FEATURE_SELFOVERLAP>
35.522

> <PUBCHEM_SHAPE_FINGERPRINT>
10675989 125 15676325353743910595
11578080 2 17982752778186569000
12156800 1 10742903961694504103
12422481 6 18335994056391171921
12597179 24 17757245112478405413
12633257 1 17988357195306738360
12788726 201 17260202506124984991
14178342 30 18267040383509877257
14251764 3 17489587857349504648
15403338 16 17386276692747934475
16728300 4 17969201404938700147
17349148 13 18334296517722240731
20600515 1 18197228154907537053
20691752 17 17752787735494464897
20905425 154 18268156344350330147
21033648 29 18201722868152269843
21330990 113 18264211305683982574
23419403 2 17471560041298749902
25222932 49 17105681518702945307
3052486 1 18262822703601392045
35225 105 18265872736267398072
394222 165 16953687118073672733
484985 159 15940026226004611946
7097593 13 17756705595686767394
81228 2 17910076382888759044
8509985 295 17895192272672080043

> <PUBCHEM_SHAPE_MULTIPOLES>
536.03
6.23
4.16
2.73
0.39
1.98
-0.86
0.07
5.46
1.51
-1.46
-1.61
-0.57
0.21

> <PUBCHEM_SHAPE_SELFOVERLAP>
1104.238

> <PUBCHEM_SHAPE_VOLUME>
303.8

> <PUBCHEM_COORDINATE_TYPE>
2
5
10

$$$$