118722600
  -OEChem-03242010103D

 52 55  0     1  0  0  0  0  0999 V2000
   -0.9846   -2.9029   -0.6855 O   0  0  0  0  0  0  0  0  0  0  0  0
   -2.8766   -1.9394   -1.5957 O   0  0  0  0  0  0  0  0  0  0  0  0
   -0.0521    3.1688    0.3715 O   0  0  0  0  0  0  0  0  0  0  0  0
   -2.1034   -0.8555    1.5510 N   0  0  2  0  0  0  0  0  0  0  0  0
    2.5441    1.7531   -0.6390 N   0  0  0  0  0  0  0  0  0  0  0  0
   -1.9226    0.6656   -1.0954 C   0  0  1  0  0  0  0  0  0  0  0  0
   -1.1247   -0.5599   -0.6642 C   0  0  1  0  0  0  0  0  0  0  0  0
   -2.9742    1.0421    0.0055 C   0  0  2  0  0  0  0  0  0  0  0  0
   -0.8962   -0.3919    0.8580 C   0  0  2  0  0  0  0  0  0  0  0  0
   -3.2914   -0.1452    0.9828 C   0  0  0  0  0  0  0  0  0  0  0  0
   -0.9103    1.8069   -1.4089 C   0  0  0  0  0  0  0  0  0  0  0  0
    0.5336   -0.8066    1.2007 C   0  0  0  0  0  0  0  0  0  0  0  0
   -4.2636    1.5630   -0.6326 C   0  0  0  0  0  0  0  0  0  0  0  0
    1.5384    0.1028    0.4835 C   0  0  0  0  0  0  0  0  0  0  0  0
   -1.7861   -1.8607   -1.0463 C   0  0  0  0  0  0  0  0  0  0  0  0
    0.1260    2.1670   -0.3229 C   0  0  0  0  0  0  0  0  0  0  0  0
    1.3229    1.3330   -0.1638 C   0  0  0  0  0  0  0  0  0  0  0  0
   -2.0245   -0.6907    2.9988 C   0  0  0  0  0  0  0  0  0  0  0  0
   -5.2740    1.9691    0.4214 C   0  0  0  0  0  0  0  0  0  0  0  0
    2.9368   -0.1994    0.3535 C   0  0  0  0  0  0  0  0  0  0  0  0
    3.5311    0.8444   -0.3513 C   0  0  0  0  0  0  0  0  0  0  0  0
    3.7504   -1.2722    0.7775 C   0  0  0  0  0  0  0  0  0  0  0  0
    4.8967    0.8734   -0.6575 C   0  0  0  0  0  0  0  0  0  0  0  0
   -1.4937   -4.2048   -0.9917 C   0  0  0  0  0  0  0  0  0  0  0  0
    5.1176   -1.2594    0.4791 C   0  0  0  0  0  0  0  0  0  0  0  0
    5.6803   -0.2008   -0.2287 C   0  0  0  0  0  0  0  0  0  0  0  0
   -2.4498    0.4578   -2.0357 H   0  0  0  0  0  0  0  0  0  0  0  0
   -0.1966   -0.5863   -1.2491 H   0  0  0  0  0  0  0  0  0  0  0  0
   -2.5681    1.8617    0.6148 H   0  0  0  0  0  0  0  0  0  0  0  0
   -0.8696    0.6631    1.1452 H   0  0  0  0  0  0  0  0  0  0  0  0
   -3.9096    0.2278    1.8079 H   0  0  0  0  0  0  0  0  0  0  0  0
   -3.9124   -0.8899    0.4719 H   0  0  0  0  0  0  0  0  0  0  0  0
   -1.4654    2.7227   -1.6483 H   0  0  0  0  0  0  0  0  0  0  0  0
   -0.3487    1.5548   -2.3182 H   0  0  0  0  0  0  0  0  0  0  0  0
    0.7185   -1.8529    0.9362 H   0  0  0  0  0  0  0  0  0  0  0  0
    0.7172   -0.7058    2.2769 H   0  0  0  0  0  0  0  0  0  0  0  0
   -4.7077    0.8037   -1.2871 H   0  0  0  0  0  0  0  0  0  0  0  0
   -4.0334    2.4326   -1.2596 H   0  0  0  0  0  0  0  0  0  0  0  0
   -1.2039   -1.2840    3.4147 H   0  0  0  0  0  0  0  0  0  0  0  0
   -2.9387   -1.0608    3.4768 H   0  0  0  0  0  0  0  0  0  0  0  0
   -1.8822    0.3559    3.2907 H   0  0  0  0  0  0  0  0  0  0  0  0
   -5.7180    1.1035    0.9217 H   0  0  0  0  0  0  0  0  0  0  0  0
   -6.0981    2.5151   -0.0505 H   0  0  0  0  0  0  0  0  0  0  0  0
   -4.8307    2.6270    1.1758 H   0  0  0  0  0  0  0  0  0  0  0  0
    2.6935    2.6185   -1.1388 H   0  0  0  0  0  0  0  0  0  0  0  0
    3.3273   -2.1056    1.3314 H   0  0  0  0  0  0  0  0  0  0  0  0
    5.3356    1.6993   -1.2074 H   0  0  0  0  0  0  0  0  0  0  0  0
   -0.7624   -4.9437   -0.6537 H   0  0  0  0  0  0  0  0  0  0  0  0
   -1.6301   -4.3137   -2.0718 H   0  0  0  0  0  0  0  0  0  0  0  0
   -2.4363   -4.3761   -0.4631 H   0  0  0  0  0  0  0  0  0  0  0  0
    5.7451   -2.0849    0.8044 H   0  0  0  0  0  0  0  0  0  0  0  0
    6.7443   -0.2084   -0.4507 H   0  0  0  0  0  0  0  0  0  0  0  0
  1 15  1  0  0  0  0
  1 24  1  0  0  0  0
  2 15  2  0  0  0  0
  3 16  2  0  0  0  0
  4  9  1  0  0  0  0
  4 10  1  0  0  0  0
  4 18  1  0  0  0  0
  5 17  1  0  0  0  0
  5 21  1  0  0  0  0
  5 45  1  0  0  0  0
  6  7  1  0  0  0  0
  6  8  1  0  0  0  0
  6 11  1  0  0  0  0
  6 27  1  0  0  0  0
  7  9  1  0  0  0  0
  7 15  1  0  0  0  0
  7 28  1  0  0  0  0
  8 10  1  0  0  0  0
  8 13  1  0  0  0  0
  8 29  1  0  0  0  0
  9 12  1  0  0  0  0
  9 30  1  0  0  0  0
 10 31  1  0  0  0  0
 10 32  1  0  0  0  0
 11 16  1  0  0  0  0
 11 33  1  0  0  0  0
 11 34  1  0  0  0  0
 12 14  1  0  0  0  0
 12 35  1  0  0  0  0
 12 36  1  0  0  0  0
 13 19  1  0  0  0  0
 13 37  1  0  0  0  0
 13 38  1  0  0  0  0
 14 17  2  0  0  0  0
 14 20  1  0  0  0  0
 16 17  1  0  0  0  0
 18 39  1  0  0  0  0
 18 40  1  0  0  0  0
 18 41  1  0  0  0  0
 19 42  1  0  0  0  0
 19 43  1  0  0  0  0
 19 44  1  0  0  0  0
 20 21  1  0  0  0  0
 20 22  2  0  0  0  0
 21 23  2  0  0  0  0
 22 25  1  0  0  0  0
 22 46  1  0  0  0  0
 23 26  1  0  0  0  0
 23 47  1  0  0  0  0
 24 48  1  0  0  0  0
 24 49  1  0  0  0  0
 24 50  1  0  0  0  0
 25 26  2  0  0  0  0
 25 51  1  0  0  0  0
 26 52  1  0  0  0  0
M  END
> <PUBCHEM_COMPOUND_CID>
118722600

> <PUBCHEM_CONFORMER_RMSD>
0.8

> <PUBCHEM_CONFORMER_DIVERSEORDER>
1
4
3
2

> <PUBCHEM_MMFF94_PARTIAL_CHARGES>
26
1 -0.43
10 0.27
11 0.06
12 0.18
14 -0.18
15 0.66
16 0.59
17 -0.24
18 0.27
2 -0.57
21 -0.15
22 -0.15
23 -0.15
24 0.28
25 -0.15
26 -0.15
3 -0.57
4 -0.81
45 0.27
46 0.15
47 0.15
5 0.03
51 0.15
52 0.15
7 0.06
9 0.27

> <PUBCHEM_EFFECTIVE_ROTOR_COUNT>
4.2

> <PUBCHEM_PHARMACOPHORE_FEATURES>
9
1 19 hydrophobe
1 2 acceptor
1 3 acceptor
1 4 cation
1 5 cation
1 5 donor
5 5 14 17 20 21 rings
6 20 21 22 23 25 26 rings
6 4 6 7 8 9 10 rings

> <PUBCHEM_HEAVY_ATOM_COUNT>
26

> <PUBCHEM_ATOM_DEF_STEREO_COUNT>
4

> <PUBCHEM_ATOM_UDEF_STEREO_COUNT>
0

> <PUBCHEM_BOND_DEF_STEREO_COUNT>
0

> <PUBCHEM_BOND_UDEF_STEREO_COUNT>
0

> <PUBCHEM_ISOTOPIC_ATOM_COUNT>
0

> <PUBCHEM_COMPONENT_COUNT>
1

> <PUBCHEM_CACTVS_TAUTO_COUNT>
794

> <PUBCHEM_CONFORMER_ID>
0713902800000001

> <PUBCHEM_MMFF94_ENERGY>
94.799

> <PUBCHEM_FEATURE_SELFOVERLAP>
45.759

> <PUBCHEM_SHAPE_FINGERPRINT>
107951 10 17386846110795099477
12011746 2 17458343044487753361
12553582 1 18409445925551441282
12592029 89 18269558252115178815
12596599 1 17988096594197977412
12633257 1 17846788403367919888
12715332 25 18410849932637367660
12788726 201 18264483975872884944
13140716 1 18335977644867342248
13224815 77 18114174281246217728
14790565 3 18268994180695842989
15196674 1 18041002842773727536
16945 1 18049436251577429545
18186145 218 16588019130763845744
19141452 34 18412542111308094300
19930381 70 17907856206476604471
20602899 9 17989203750831000247
20775530 9 17479163615293536174
21033648 29 18130499782266077297
21267235 1 18115030672129127784
23402539 116 18201711830134051325
23419403 2 16013536605831830875
23557571 272 17985525961708279208
23559900 14 18113901568282768360
23728640 28 18412262839538920967
34934 24 18335137601020129896
5104073 3 17822013138130295232
633830 44 17603586365805713208
70251023 43 17903351851172242939

> <PUBCHEM_SHAPE_MULTIPOLES>
507.5
9.47
3.19
1.6
8.43
2.14
-0.86
-1.98
-0.2
-2.21
1.35
-1.42
0.74
-0.83

> <PUBCHEM_SHAPE_SELFOVERLAP>
1096.538

> <PUBCHEM_SHAPE_VOLUME>
275.7

> <PUBCHEM_COORDINATE_TYPE>
2
5
10

$$$$