21
 OpenBabel03292021433D

157164  0  0  1  0  0  0  0  0999 V2000
   14.4102    3.2652  -27.4683 C   0  0  0  0  0  0  0  0  0  0  0  0
   13.9815    3.2544  -26.0154 C   0  0  0  0  0  0  0  0  0  0  0  0
   14.3540    4.4733  -25.3520 O   0  0  0  0  0  0  0  0  0  0  0  0
   13.3455    5.2961  -24.9788 C   0  0  0  0  0  0  0  0  0  0  0  0
   12.1876    5.1811  -25.3492 O   0  0  0  0  0  0  0  0  0  0  0  0
   13.8118    6.2682  -23.9442 C   0  0  0  0  0  0  0  0  0  0  0  0
   13.0752    7.3519  -23.5897 C   0  0  0  0  0  0  0  0  0  0  0  0
   11.8214    7.8667  -24.2563 C   0  0  0  0  0  0  0  0  0  0  0  0
   13.4560    8.1094  -22.4904 N   0  0  0  0  0  0  0  0  0  0  0  0
   14.3858    7.7131  -21.5464 C   0  0  0  0  0  0  0  0  0  0  0  0
   14.4569    8.5834  -20.3135 C   0  0  0  0  0  0  0  0  0  0  0  0
   15.1744    6.6389  -21.7976 C   0  0  0  0  0  0  0  0  0  0  0  0
   16.1677    6.0787  -20.8384 C   0  0  0  0  0  0  0  0  0  0  0  0
   17.0520    5.3046  -21.1639 O   0  0  0  0  0  0  0  0  0  0  0  0
   15.9236    6.4975  -19.5758 O   0  0  0  0  0  0  0  0  0  0  0  0
   16.8415    6.0516  -18.5687 C   0  0  0  0  0  0  0  0  0  0  0  0
   16.5165    4.6931  -18.0832 C   0  0  0  0  0  0  0  0  0  0  0  0
   15.3937    4.2165  -17.4344 C   0  0  0  0  0  0  0  0  0  0  0  0
   15.6632    2.8938  -17.2569 N   0  0  0  0  0  0  0  0  0  0  0  0
   14.8850    1.9024  -16.5461 C   0  0  0  0  0  0  0  0  0  0  0  0
   15.7874    0.8839  -15.8643 C   0  0  0  0  0  0  0  0  0  0  0  0
   15.0224   -0.0636  -15.1228 O   0  0  0  0  0  0  0  0  0  0  0  0
   15.8471   -1.0589  -14.4881 C   0  0  0  0  0  0  0  0  0  0  0  0
   16.8585   -0.4745  -13.4967 C   0  0  0  0  0  0  0  0  0  0  0  0
   16.1865    0.3631  -12.5519 O   0  0  0  0  0  0  0  0  0  0  0  0
   17.0646    1.0396  -11.6415 C   0  0  0  0  0  0  0  0  0  0  0  0
   17.8569    2.1652  -12.3146 C   0  0  0  0  0  0  0  0  0  0  0  0
   18.8888    1.5782  -13.1057 O   0  0  0  0  0  0  0  0  0  0  0  0
   19.4330    2.4672  -14.0714 C   0  0  0  0  0  0  0  0  0  0  0  0
   20.1403    1.6375  -15.1353 C   0  0  0  0  0  0  0  0  0  0  0  0
   20.8719    2.5176  -15.9721 O   0  0  0  0  0  0  0  0  0  0  0  0
   21.5527    1.8282  -17.0165 C   0  0  0  0  0  0  0  0  0  0  0  0
   22.4239    2.8455  -17.7537 C   0  0  0  0  0  0  0  0  0  0  0  0
   23.4090    3.4876  -16.9279 O   0  0  0  0  0  0  0  0  0  0  0  0
   24.2994    2.6177  -16.2282 C   0  0  0  0  0  0  0  0  0  0  0  0
   25.1681    1.8088  -17.1787 C   0  0  0  0  0  0  0  0  0  0  0  0
   26.0476    0.9090  -16.4803 N   0  0  0  0  0  0  0  0  0  0  0  0
   27.3055    1.1539  -16.0289 C   0  0  0  0  0  0  0  0  0  0  0  0
   27.6967   -0.0473  -15.4807 C   0  0  0  0  0  0  0  0  0  0  0  0
   28.9487   -0.4047  -14.7672 C   0  0  0  0  0  0  0  0  0  0  0  0
   28.6465   -0.8075  -13.4262 O   0  0  0  0  0  0  0  0  0  0  0  0
   28.5371    0.2061  -12.5277 C   0  0  0  0  0  0  0  0  0  0  0  0
   29.0281    1.3112  -12.6735 O   0  0  0  0  0  0  0  0  0  0  0  0
   27.6249   -0.2113  -11.4204 C   0  0  0  0  0  0  0  0  0  0  0  0
   26.9404    0.6824  -10.6671 C   0  0  0  0  0  0  0  0  0  0  0  0
   27.0414    2.1851  -10.7027 C   0  0  0  0  0  0  0  0  0  0  0  0
   26.0005    0.2119   -9.7562 N   0  0  0  0  0  0  0  0  0  0  0  0
   25.5168   -1.0852   -9.7176 C   0  0  0  0  0  0  0  0  0  0  0  0
   24.3108   -1.3086   -8.8419 C   0  0  0  0  0  0  0  0  0  0  0  0
   26.1422   -2.0551  -10.4265 C   0  0  0  0  0  0  0  0  0  0  0  0
   25.6511   -3.4669  -10.3959 C   0  0  0  0  0  0  0  0  0  0  0  0
   24.9232   -3.9196   -9.5360 O   0  0  0  0  0  0  0  0  0  0  0  0
   26.1580   -4.1922  -11.4265 O   0  0  0  0  0  0  0  0  0  0  0  0
   26.0698   -5.6238  -11.2915 C   0  0  0  0  0  0  0  0  0  0  0  0
   25.1043   -6.2248  -12.2958 C   0  0  0  0  0  0  0  0  0  0  0  0
   27.4150   -1.7204  -11.2124 C   0  0  3  0  0  0  0  0  0  0  0  0
   28.6318   -2.3314  -10.5359 C   0  0  0  0  0  0  0  0  0  0  0  0
   29.6269   -3.2516  -11.0419 C   0  0  0  0  0  0  0  0  0  0  0  0
   29.8225   -3.8739  -12.3642 C   0  0  0  0  0  0  0  0  0  0  0  0
   31.1099   -4.2923  -12.7509 C   0  0  0  0  0  0  0  0  0  0  0  0
   31.3379   -4.8945  -13.9935 C   0  0  0  0  0  0  0  0  0  0  0  0
   30.2820   -5.0880  -14.8772 C   0  0  0  0  0  0  0  0  0  0  0  0
   29.0039   -4.6872  -14.5153 C   0  0  0  0  0  0  0  0  0  0  0  0
   28.7815   -4.0933  -13.2700 C   0  0  0  0  0  0  0  0  0  0  0  0
   30.5219   -3.5249  -10.0743 N   0  0  0  0  0  0  0  0  0  0  0  0
   30.1718   -2.7972   -8.9745 O   0  0  0  0  0  0  0  0  0  0  0  0
   29.0626   -2.0741   -9.2393 C   0  0  0  0  0  0  0  0  0  0  0  0
   28.6076   -1.2069   -8.1309 C   0  0  0  0  0  0  0  0  0  0  0  0
   26.6740   -0.9548  -15.6145 N   0  0  0  0  0  0  0  0  0  0  0  0
   25.6651   -0.3534  -16.2281 N   0  0  0  0  0  0  0  0  0  0  0  0
   16.8544    2.5636  -17.7879 N   0  0  0  0  0  0  0  0  0  0  0  0
   17.3978    3.6649  -18.2741 N   0  0  0  0  0  0  0  0  0  0  0  0
   15.0954    5.9175  -23.1618 C   0  0  3  0  0  0  0  0  0  0  0  0
   16.3429    6.2085  -23.9842 C   0  0  0  0  0  0  0  0  0  0  0  0
   17.3353    5.3185  -24.5568 C   0  0  0  0  0  0  0  0  0  0  0  0
   17.4471    3.8470  -24.6092 C   0  0  0  0  0  0  0  0  0  0  0  0
   18.1295    3.2493  -25.6895 C   0  0  0  0  0  0  0  0  0  0  0  0
   18.2344    1.8605  -25.8136 C   0  0  0  0  0  0  0  0  0  0  0  0
   17.6504    1.0359  -24.8600 C   0  0  0  0  0  0  0  0  0  0  0  0
   16.9925    1.6030  -23.7718 C   0  0  0  0  0  0  0  0  0  0  0  0
   16.9087    2.9963  -23.6385 C   0  0  0  0  0  0  0  0  0  0  0  0
   18.2748    6.0432  -25.1941 N   0  0  0  0  0  0  0  0  0  0  0  0
   17.9230    7.3561  -25.0849 O   0  0  0  0  0  0  0  0  0  0  0  0
   16.7743    7.4660  -24.3856 C   0  0  0  0  0  0  0  0  0  0  0  0
   16.2642    8.8423  -24.2314 C   0  0  0  0  0  0  0  0  0  0  0  0
   14.1817    2.3012  -27.9347 H   0  0  0  0  0  0  0  0  0  0  0  0
   15.4845    3.4505  -27.5615 H   0  0  0  0  0  0  0  0  0  0  0  0
   13.8938    4.0530  -28.0246 H   0  0  0  0  0  0  0  0  0  0  0  0
   14.4980    2.4446  -25.4924 H   0  0  0  0  0  0  0  0  0  0  0  0
   12.9094    3.0472  -25.9345 H   0  0  0  0  0  0  0  0  0  0  0  0
   11.4453    7.2662  -25.0810 H   0  0  0  0  0  0  0  0  0  0  0  0
   12.0106    8.8696  -24.6568 H   0  0  0  0  0  0  0  0  0  0  0  0
   11.0162    7.9490  -23.5167 H   0  0  0  0  0  0  0  0  0  0  0  0
   12.8240    8.8612  -22.2211 H   0  0  0  0  0  0  0  0  0  0  0  0
   13.8653    9.4977  -20.4315 H   0  0  0  0  0  0  0  0  0  0  0  0
   15.4856    8.9070  -20.1210 H   0  0  0  0  0  0  0  0  0  0  0  0
   14.0570    8.0606  -19.4389 H   0  0  0  0  0  0  0  0  0  0  0  0
   16.7554    6.7587  -17.7350 H   0  0  0  0  0  0  0  0  0  0  0  0
   17.8748    6.1234  -18.9276 H   0  0  0  0  0  0  0  0  0  0  0  0
   14.4793    4.6864  -17.1052 H   0  0  0  0  0  0  0  0  0  0  0  0
   14.2091    1.4259  -17.2629 H   0  0  0  0  0  0  0  0  0  0  0  0
   14.2693    2.4222  -15.8020 H   0  0  0  0  0  0  0  0  0  0  0  0
   16.4552    1.4346  -15.1942 H   0  0  0  0  0  0  0  0  0  0  0  0
   16.3941    0.3452  -16.6017 H   0  0  0  0  0  0  0  0  0  0  0  0
   16.3713   -1.6343  -15.2614 H   0  0  0  0  0  0  0  0  0  0  0  0
   15.1720   -1.7404  -13.9632 H   0  0  0  0  0  0  0  0  0  0  0  0
   17.5811    0.0959  -14.0764 H   0  0  0  0  0  0  0  0  0  0  0  0
   17.4005   -1.2711  -12.9773 H   0  0  0  0  0  0  0  0  0  0  0  0
   17.7261    0.3096  -11.1628 H   0  0  0  0  0  0  0  0  0  0  0  0
   16.4230    1.4782  -10.8703 H   0  0  0  0  0  0  0  0  0  0  0  0
   18.3284    2.8045  -11.5620 H   0  0  0  0  0  0  0  0  0  0  0  0
   17.1846    2.7637  -12.9402 H   0  0  0  0  0  0  0  0  0  0  0  0
   20.1332    3.1498  -13.5792 H   0  0  0  0  0  0  0  0  0  0  0  0
   18.6534    3.0712  -14.5522 H   0  0  0  0  0  0  0  0  0  0  0  0
   19.4038    1.0762  -15.7246 H   0  0  0  0  0  0  0  0  0  0  0  0
   20.8132    0.9103  -14.6652 H   0  0  0  0  0  0  0  0  0  0  0  0
   20.8243    1.3862  -17.7047 H   0  0  0  0  0  0  0  0  0  0  0  0
   22.1588    1.0194  -16.5935 H   0  0  0  0  0  0  0  0  0  0  0  0
   21.7859    3.6490  -18.1364 H   0  0  0  0  0  0  0  0  0  0  0  0
   22.9144    2.3875  -18.6176 H   0  0  0  0  0  0  0  0  0  0  0  0
   23.7482    1.9869  -15.5217 H   0  0  0  0  0  0  0  0  0  0  0  0
   24.9374    3.2578  -15.6066 H   0  0  0  0  0  0  0  0  0  0  0  0
   25.7768    2.4766  -17.7978 H   0  0  0  0  0  0  0  0  0  0  0  0
   24.5676    1.2049  -17.8666 H   0  0  0  0  0  0  0  0  0  0  0  0
   27.7875    2.1169  -16.1118 H   0  0  0  0  0  0  0  0  0  0  0  0
   29.6765    0.4128  -14.7965 H   0  0  0  0  0  0  0  0  0  0  0  0
   29.4137   -1.2623  -15.2658 H   0  0  0  0  0  0  0  0  0  0  0  0
   27.6774    2.5983  -11.4827 H   0  0  0  0  0  0  0  0  0  0  0  0
   27.4262    2.5504   -9.7417 H   0  0  0  0  0  0  0  0  0  0  0  0
   26.0461    2.6210  -10.8518 H   0  0  0  0  0  0  0  0  0  0  0  0
   25.4702    0.9167   -9.2461 H   0  0  0  0  0  0  0  0  0  0  0  0
   24.0170   -0.3896   -8.3233 H   0  0  0  0  0  0  0  0  0  0  0  0
   24.5229   -2.0439   -8.0598 H   0  0  0  0  0  0  0  0  0  0  0  0
   23.4534   -1.6332   -9.4394 H   0  0  0  0  0  0  0  0  0  0  0  0
   25.7968   -5.9278  -10.2765 H   0  0  0  0  0  0  0  0  0  0  0  0
   27.0736   -6.0183  -11.4794 H   0  0  0  0  0  0  0  0  0  0  0  0
   24.1069   -5.7853  -12.2052 H   0  0  0  0  0  0  0  0  0  0  0  0
   25.0262   -7.3065  -12.1396 H   0  0  0  0  0  0  0  0  0  0  0  0
   25.4469   -6.0525  -13.3212 H   0  0  0  0  0  0  0  0  0  0  0  0
   27.2497   -2.1364  -12.2044 H   0  0  0  0  0  0  0  0  0  0  0  0
   31.9579   -4.1550  -12.0814 H   0  0  0  0  0  0  0  0  0  0  0  0
   32.3403   -5.2135  -14.2646 H   0  0  0  0  0  0  0  0  0  0  0  0
   30.4515   -5.5545  -15.8433 H   0  0  0  0  0  0  0  0  0  0  0  0
   28.1666   -4.8329  -15.1935 H   0  0  0  0  0  0  0  0  0  0  0  0
   27.7607   -3.8276  -13.0498 H   0  0  0  0  0  0  0  0  0  0  0  0
   29.2579   -1.3051   -7.2556 H   0  0  0  0  0  0  0  0  0  0  0  0
   27.5960   -1.4702   -7.8130 H   0  0  0  0  0  0  0  0  0  0  0  0
   28.6271   -0.1552   -8.4299 H   0  0  0  0  0  0  0  0  0  0  0  0
   15.0166    4.8517  -22.9304 H   0  0  0  0  0  0  0  0  0  0  0  0
   18.5940    3.8697  -26.4551 H   0  0  0  0  0  0  0  0  0  0  0  0
   18.7740    1.4311  -26.6538 H   0  0  0  0  0  0  0  0  0  0  0  0
   17.7231   -0.0442  -24.9544 H   0  0  0  0  0  0  0  0  0  0  0  0
   16.5513    0.9621  -23.0125 H   0  0  0  0  0  0  0  0  0  0  0  0
   16.4369    3.3841  -22.7444 H   0  0  0  0  0  0  0  0  0  0  0  0
   16.9079    9.5647  -24.7431 H   0  0  0  0  0  0  0  0  0  0  0  0
   16.2261    9.1292  -23.1779 H   0  0  0  0  0  0  0  0  0  0  0  0
   15.2649    8.9342  -24.6646 H   0  0  0  0  0  0  0  0  0  0  0  0
  1  2  1  0  0  0  0
  1 86  1  0  0  0  0
  1 87  1  0  0  0  0
  1 88  1  0  0  0  0
  2  3  1  0  0  0  0
  2 89  1  0  0  0  0
  2 90  1  0  0  0  0
  3  4  1  0  0  0  0
  4  5  2  0  0  0  0
  4  6  1  0  0  0  0
  6  7  2  0  0  0  0
  6 73  1  0  0  0  0
  7  8  1  0  0  0  0
  7  9  1  0  0  0  0
  8 91  1  0  0  0  0
  8 92  1  0  0  0  0
  8 93  1  0  0  0  0
  9 10  1  0  0  0  0
  9 94  1  0  0  0  0
 10 11  1  0  0  0  0
 10 12  2  0  0  0  0
 11 95  1  0  0  0  0
 11 96  1  0  0  0  0
 11 97  1  0  0  0  0
 12 13  1  0  0  0  0
 12 73  1  0  0  0  0
 13 14  2  0  0  0  0
 13 15  1  0  0  0  0
 15 16  1  0  0  0  0
 16 17  1  0  0  0  0
 16 98  1  0  0  0  0
 16 99  1  0  0  0  0
 17 18  2  0  0  0  0
 17 72  1  0  0  0  0
 18 19  1  0  0  0  0
 18100  1  0  0  0  0
 19 20  1  0  0  0  0
 19 71  1  0  0  0  0
 20 21  1  0  0  0  0
 20101  1  0  0  0  0
 20102  1  0  0  0  0
 21 22  1  0  0  0  0
 21103  1  0  0  0  0
 21104  1  0  0  0  0
 22 23  1  0  0  0  0
 23 24  1  0  0  0  0
 23105  1  0  0  0  0
 23106  1  0  0  0  0
 24 25  1  0  0  0  0
 24107  1  0  0  0  0
 24108  1  0  0  0  0
 25 26  1  0  0  0  0
 26 27  1  0  0  0  0
 26109  1  0  0  0  0
 26110  1  0  0  0  0
 27 28  1  0  0  0  0
 27111  1  0  0  0  0
 27112  1  0  0  0  0
 28 29  1  0  0  0  0
 29 30  1  0  0  0  0
 29113  1  0  0  0  0
 29114  1  0  0  0  0
 30 31  1  0  0  0  0
 30115  1  0  0  0  0
 30116  1  0  0  0  0
 31 32  1  0  0  0  0
 32 33  1  0  0  0  0
 32117  1  0  0  0  0
 32118  1  0  0  0  0
 33 34  1  0  0  0  0
 33119  1  0  0  0  0
 33120  1  0  0  0  0
 34 35  1  0  0  0  0
 35 36  1  0  0  0  0
 35121  1  0  0  0  0
 35122  1  0  0  0  0
 36 37  1  0  0  0  0
 36123  1  0  0  0  0
 36124  1  0  0  0  0
 37 38  1  0  0  0  0
 37 70  1  0  0  0  0
 38 39  2  0  0  0  0
 38125  1  0  0  0  0
 39 40  1  0  0  0  0
 39 69  1  0  0  0  0
 40 41  1  0  0  0  0
 40126  1  0  0  0  0
 40127  1  0  0  0  0
 41 42  1  0  0  0  0
 42 43  2  0  0  0  0
 42 44  1  0  0  0  0
 44 45  2  0  0  0  0
 44 56  1  0  0  0  0
 45 46  1  0  0  0  0
 45 47  1  0  0  0  0
 46128  1  0  0  0  0
 46129  1  0  0  0  0
 46130  1  0  0  0  0
 47 48  1  0  0  0  0
 47131  1  0  0  0  0
 48 49  1  0  0  0  0
 48 50  2  0  0  0  0
 49132  1  0  0  0  0
 49133  1  0  0  0  0
 49134  1  0  0  0  0
 50 51  1  0  0  0  0
 50 56  1  0  0  0  0
 51 52  2  0  0  0  0
 51 53  1  0  0  0  0
 53 54  1  0  0  0  0
 54 55  1  0  0  0  0
 54135  1  0  0  0  0
 54136  1  0  0  0  0
 55137  1  0  0  0  0
 55138  1  0  0  0  0
 55139  1  0  0  0  0
 56 57  1  0  0  0  0
 56140  1  0  0  0  0
 57 58  1  0  0  0  0
 57 67  2  0  0  0  0
 58 59  1  0  0  0  0
 58 65  2  0  0  0  0
 59 60  1  0  0  0  0
 59 64  2  0  0  0  0
 60 61  2  0  0  0  0
 60141  1  0  0  0  0
 61 62  1  0  0  0  0
 61142  1  0  0  0  0
 62 63  2  0  0  0  0
 62143  1  0  0  0  0
 63 64  1  0  0  0  0
 63144  1  0  0  0  0
 64145  1  0  0  0  0
 65 66  1  0  0  0  0
 66 67  1  0  0  0  0
 67 68  1  0  0  0  0
 68146  1  0  0  0  0
 68147  1  0  0  0  0
 68148  1  0  0  0  0
 69 70  2  0  0  0  0
 71 72  2  0  0  0  0
 73 74  1  0  0  0  0
 73149  1  0  0  0  0
 74 75  1  0  0  0  0
 74 84  2  0  0  0  0
 75 76  1  0  0  0  0
 75 82  2  0  0  0  0
 76 77  1  0  0  0  0
 76 81  2  0  0  0  0
 77 78  2  0  0  0  0
 77150  1  0  0  0  0
 78 79  1  0  0  0  0
 78151  1  0  0  0  0
 79 80  2  0  0  0  0
 79152  1  0  0  0  0
 80 81  1  0  0  0  0
 80153  1  0  0  0  0
 81154  1  0  0  0  0
 82 83  1  0  0  0  0
 83 84  1  0  0  0  0
 84 85  1  0  0  0  0
 85155  1  0  0  0  0
 85156  1  0  0  0  0
 85157  1  0  0  0  0
M  END
>  <Energy>
141.604

$$$$