137633237
  -OEChem-03242010103D

 54 56  0     0  0  0  0  0  0999 V2000
    0.6761    1.3045    3.0009 O   0  0  0  0  0  0  0  0  0  0  0  0
    3.5366   -0.2328   -0.0166 O   0  0  0  0  0  0  0  0  0  0  0  0
   -2.9556   -1.5194    0.2313 O   0  0  0  0  0  0  0  0  0  0  0  0
    2.5204    1.2602   -1.4440 O   0  0  0  0  0  0  0  0  0  0  0  0
   -1.6630   -1.7757    2.1187 O   0  0  0  0  0  0  0  0  0  0  0  0
    0.4534   -2.7226   -1.9179 N   0  0  0  0  0  0  0  0  0  0  0  0
   -0.0296    2.2086    2.2163 N   0  0  0  0  0  0  0  0  0  0  0  0
    0.3748   -0.7304    0.0412 C   0  0  0  0  0  0  0  0  0  0  0  0
    0.3346    0.2894    1.0454 C   0  0  0  0  0  0  0  0  0  0  0  0
    1.4303   -0.7791   -0.8627 C   0  0  0  0  0  0  0  0  0  0  0  0
   -0.6413   -1.6765   -0.0334 C   0  0  0  0  0  0  0  0  0  0  0  0
   -0.2221    1.5800    1.0531 C   0  0  0  0  0  0  0  0  0  0  0  0
    1.4229   -1.7861   -1.8143 C   0  0  0  0  0  0  0  0  0  0  0  0
   -0.5562   -2.6431   -1.0223 C   0  0  0  0  0  0  0  0  0  0  0  0
    0.8870    0.1657    2.2927 C   0  0  0  0  0  0  0  0  0  0  0  0
   -0.9310    2.2325   -0.0117 C   0  0  0  0  0  0  0  0  0  0  0  0
    2.5197    0.1916   -0.8245 C   0  0  0  0  0  0  0  0  0  0  0  0
   -1.7697   -1.6661    0.8932 C   0  0  0  0  0  0  0  0  0  0  0  0
    2.5278   -1.8943   -2.8150 C   0  0  0  0  0  0  0  0  0  0  0  0
   -1.6149   -3.6895   -1.1556 C   0  0  0  0  0  0  0  0  0  0  0  0
    1.6267   -0.8986    2.9874 C   0  0  0  0  0  0  0  0  0  0  0  0
   -2.3156    2.0977   -0.1121 C   0  0  0  0  0  0  0  0  0  0  0  0
   -0.2356    3.0006   -0.9455 C   0  0  0  0  0  0  0  0  0  0  0  0
   -3.0051    2.7309   -1.1464 C   0  0  0  0  0  0  0  0  0  0  0  0
   -0.9248    3.6339   -1.9797 C   0  0  0  0  0  0  0  0  0  0  0  0
   -2.3096    3.4989   -2.0802 C   0  0  0  0  0  0  0  0  0  0  0  0
    4.6673    0.6372    0.1032 C   0  0  0  0  0  0  0  0  0  0  0  0
   -4.1403   -1.4942    1.0347 C   0  0  0  0  0  0  0  0  0  0  0  0
    5.6812    0.0029    1.0312 C   0  0  0  0  0  0  0  0  0  0  0  0
   -5.3444   -1.3263    0.1326 C   0  0  0  0  0  0  0  0  0  0  0  0
    3.4875   -2.0610   -2.3154 H   0  0  0  0  0  0  0  0  0  0  0  0
    2.3587   -2.7375   -3.4935 H   0  0  0  0  0  0  0  0  0  0  0  0
    2.5873   -0.9875   -3.4253 H   0  0  0  0  0  0  0  0  0  0  0  0
   -2.5268   -3.2668   -1.5877 H   0  0  0  0  0  0  0  0  0  0  0  0
   -1.2788   -4.4897   -1.8249 H   0  0  0  0  0  0  0  0  0  0  0  0
   -1.8416   -4.1566   -0.1919 H   0  0  0  0  0  0  0  0  0  0  0  0
    1.2021   -1.0775    3.9802 H   0  0  0  0  0  0  0  0  0  0  0  0
    1.5953   -1.8431    2.4363 H   0  0  0  0  0  0  0  0  0  0  0  0
    2.6762   -0.6135    3.1100 H   0  0  0  0  0  0  0  0  0  0  0  0
   -2.8735    1.5056    0.6091 H   0  0  0  0  0  0  0  0  0  0  0  0
    0.8398    3.1346   -0.8718 H   0  0  0  0  0  0  0  0  0  0  0  0
   -4.0833    2.6259   -1.2241 H   0  0  0  0  0  0  0  0  0  0  0  0
   -0.3839    4.2358   -2.7041 H   0  0  0  0  0  0  0  0  0  0  0  0
   -2.8463    3.9928   -2.8848 H   0  0  0  0  0  0  0  0  0  0  0  0
    5.1134    0.7918   -0.8854 H   0  0  0  0  0  0  0  0  0  0  0  0
    4.3422    1.6008    0.5108 H   0  0  0  0  0  0  0  0  0  0  0  0
   -4.2216   -2.4342    1.5913 H   0  0  0  0  0  0  0  0  0  0  0  0
   -4.0842   -0.6577    1.7399 H   0  0  0  0  0  0  0  0  0  0  0  0
    5.2416   -0.1743    2.0183 H   0  0  0  0  0  0  0  0  0  0  0  0
    5.9996   -0.9713    0.6457 H   0  0  0  0  0  0  0  0  0  0  0  0
    6.5607    0.6425    1.1456 H   0  0  0  0  0  0  0  0  0  0  0  0
   -5.2666   -0.3984   -0.4437 H   0  0  0  0  0  0  0  0  0  0  0  0
   -5.4006   -2.1461   -0.5911 H   0  0  0  0  0  0  0  0  0  0  0  0
   -6.2697   -1.3042    0.7149 H   0  0  0  0  0  0  0  0  0  0  0  0
  1  7  1  0  0  0  0
  1 15  1  0  0  0  0
  2 17  1  0  0  0  0
  2 27  1  0  0  0  0
  3 18  1  0  0  0  0
  3 28  1  0  0  0  0
  4 17  2  0  0  0  0
  5 18  2  0  0  0  0
  6 13  2  0  0  0  0
  6 14  1  0  0  0  0
  7 12  2  0  0  0  0
  8  9  1  0  0  0  0
  8 10  2  0  0  0  0
  8 11  1  0  0  0  0
  9 12  1  0  0  0  0
  9 15  2  0  0  0  0
 10 13  1  0  0  0  0
 10 17  1  0  0  0  0
 11 14  2  0  0  0  0
 11 18  1  0  0  0  0
 12 16  1  0  0  0  0
 13 19  1  0  0  0  0
 14 20  1  0  0  0  0
 15 21  1  0  0  0  0
 16 22  2  0  0  0  0
 16 23  1  0  0  0  0
 19 31  1  0  0  0  0
 19 32  1  0  0  0  0
 19 33  1  0  0  0  0
 20 34  1  0  0  0  0
 20 35  1  0  0  0  0
 20 36  1  0  0  0  0
 21 37  1  0  0  0  0
 21 38  1  0  0  0  0
 21 39  1  0  0  0  0
 22 24  1  0  0  0  0
 22 40  1  0  0  0  0
 23 25  2  0  0  0  0
 23 41  1  0  0  0  0
 24 26  2  0  0  0  0
 24 42  1  0  0  0  0
 25 26  1  0  0  0  0
 25 43  1  0  0  0  0
 26 44  1  0  0  0  0
 27 29  1  0  0  0  0
 27 45  1  0  0  0  0
 27 46  1  0  0  0  0
 28 30  1  0  0  0  0
 28 47  1  0  0  0  0
 28 48  1  0  0  0  0
 29 49  1  0  0  0  0
 29 50  1  0  0  0  0
 29 51  1  0  0  0  0
 30 52  1  0  0  0  0
 30 53  1  0  0  0  0
 30 54  1  0  0  0  0
M  END
> <PUBCHEM_COMPOUND_CID>
137633237

> <PUBCHEM_CONFORMER_RMSD>
1

> <PUBCHEM_CONFORMER_DIVERSEORDER>
1
10
12
28
21
22
24
11
13
27
2
20
23
18
5
25
19
7
26
6
8
9
29
3
30
15
16
4
14
17

> <PUBCHEM_MMFF94_PARTIAL_CHARGES>
33
1 -0.02
10 0.09
11 0.09
12 0.23
13 0.17
14 0.17
15 -0.04
16 0.05
17 0.63
18 0.63
19 0.14
2 -0.43
20 0.14
21 0.18
22 -0.15
23 -0.15
24 -0.15
25 -0.15
26 -0.15
27 0.28
28 0.28
3 -0.43
4 -0.57
40 0.15
41 0.15
42 0.15
43 0.15
44 0.15
5 -0.57
6 -0.62
7 -0.41
8 0.05
9 -0.05

> <PUBCHEM_EFFECTIVE_ROTOR_COUNT>
8

> <PUBCHEM_PHARMACOPHORE_FEATURES>
7
1 4 acceptor
1 5 acceptor
1 6 acceptor
1 7 acceptor
5 1 7 9 12 15 rings
6 16 22 23 24 25 26 rings
6 6 8 10 11 13 14 rings

> <PUBCHEM_HEAVY_ATOM_COUNT>
30

> <PUBCHEM_ATOM_DEF_STEREO_COUNT>
0

> <PUBCHEM_ATOM_UDEF_STEREO_COUNT>
0

> <PUBCHEM_BOND_DEF_STEREO_COUNT>
0

> <PUBCHEM_BOND_UDEF_STEREO_COUNT>
0

> <PUBCHEM_ISOTOPIC_ATOM_COUNT>
0

> <PUBCHEM_COMPONENT_COUNT>
1

> <PUBCHEM_CACTVS_TAUTO_COUNT>
-1

> <PUBCHEM_CONFORMER_ID>
08341DD500000001

> <PUBCHEM_MMFF94_ENERGY>
82.5724

> <PUBCHEM_FEATURE_SELFOVERLAP>
35.524

> <PUBCHEM_SHAPE_FINGERPRINT>
11421498 54 17313097571042616483
11578080 2 17987532411114338136
11582403 64 17316498197235182110
12035758 1 17774430706816641194
12156800 1 18043240241477588767
12422481 6 18338252512760645993
12467345 10 17749098951097262202
12788726 201 17967828175276673212
13140716 1 17056410143045553787
133893 2 17402057093613648006
144659 39 17752204985747467153
17357779 13 18341895195426617023
17492 54 17971496201864858933
18769570 83 18260834825570480777
20600515 1 18057623133521757710
20691752 17 18051675935415214074
21285901 2 18341626914199452623
22182313 1 18199763461565461622
229495 10 15122400805251922318
23419403 2 17774716450842903459
3052486 1 18041558028069712833
3380486 77 18042986426343556746
350125 39 17556619519734618302
35225 105 17758909906036582860
4409770 3 18341599413381275222

> <PUBCHEM_SHAPE_MULTIPOLES>
578.08
6.67
4.47
2.82
2.82
1.57
0.87
-0.74
0.5
-4.41
-2.87
1.28
-0.18
1.95

> <PUBCHEM_SHAPE_SELFOVERLAP>
1250.135

> <PUBCHEM_SHAPE_VOLUME>
319.2

> <PUBCHEM_COORDINATE_TYPE>
2
5
10

$$$$