22
 OpenBabel03292021433D

 63 67  0  0  1  0  0  0  0  0999 V2000
    1.2292   -0.1370    0.4977 C   0  0  0  0  0  0  0  0  0  0  0  0
    2.4898   -0.9183    0.8485 C   0  0  0  0  0  0  0  0  0  0  0  0
    3.5759   -0.7424   -0.2163 C   0  0  2  0  0  0  0  0  0  0  0  0
    4.1944    0.7447   -0.1848 C   0  0  0  0  0  0  0  0  0  0  0  0
    5.5381    1.0303   -0.8070 N   0  0  0  0  0  0  0  0  0  0  0  0
    5.4060    1.6293   -2.1413 C   0  0  0  0  0  0  0  0  0  0  0  0
    6.5102   -0.1357   -0.8214 C   0  0  1  0  0  0  0  0  0  0  0  0
    7.3425   -0.1232    0.5245 C   0  0  0  0  0  0  0  0  0  0  0  0
    7.3022   -1.1576    1.6591 C   0  0  0  0  0  0  0  0  0  0  0  0
    7.0065   -2.5230    1.6703 C   0  0  0  0  0  0  0  0  0  0  0  0
    7.3517   -3.0234    2.9036 N   0  0  0  0  0  0  0  0  0  0  0  0
    7.5669   -2.0024    3.7893 C   0  0  0  0  0  0  0  0  0  0  0  0
    7.7728   -2.0494    5.1740 C   0  0  0  0  0  0  0  0  0  0  0  0
    7.9338   -0.8392    5.8466 C   0  0  0  0  0  0  0  0  0  0  0  0
    7.9181    0.3701    5.1497 C   0  0  0  0  0  0  0  0  0  0  0  0
    7.7489    0.3880    3.7556 C   0  0  0  0  0  0  0  0  0  0  0  0
    7.5514   -0.8212    3.0517 C   0  0  0  0  0  0  0  0  0  0  0  0
    6.4153   -3.3830    0.6651 C   0  0  0  0  0  0  0  0  0  0  0  0
    7.2512   -4.2144    0.1221 N   0  0  0  0  0  0  0  0  0  0  0  0
    6.8965   -5.0252   -0.9045 N   0  0  0  0  0  0  0  0  0  0  0  0
    7.8728   -5.2105   -1.9174 C   0  0  0  0  0  0  0  0  0  0  0  0
    9.2428   -5.0651   -1.6833 C   0  0  0  0  0  0  0  0  0  0  0  0
   10.1909   -5.1239   -2.6608 N   0  0  0  0  0  0  0  0  0  0  0  0
    9.7139   -5.3535   -3.8999 C   0  0  0  0  0  0  0  0  0  0  0  0
    8.3667   -5.5416   -4.1438 C   0  0  0  0  0  0  0  0  0  0  0  0
    7.4299   -5.4833   -3.1676 N   0  0  0  0  0  0  0  0  0  0  0  0
    4.9077   -3.1380    0.3770 C   0  0  0  0  0  0  0  0  0  0  0  0
    4.7838   -1.6705   -0.0356 C   0  0  1  0  0  0  0  0  0  0  0  0
    5.6698   -1.3266   -1.2320 C   0  0  2  0  0  0  0  0  0  0  0  0
    6.0154   -2.3616   -2.2861 C   0  0  0  0  0  0  0  0  0  0  0  0
    5.3624   -3.3910   -2.4143 O   0  0  0  0  0  0  0  0  0  0  0  0
    6.7937   -1.8216   -3.2663 O   0  0  0  0  0  0  0  0  0  0  0  0
    6.4612   -2.3272   -4.5620 C   0  0  0  0  0  0  0  0  0  0  0  0
    0.4594   -0.2967    1.2583 H   0  0  0  0  0  0  0  0  0  0  0  0
    0.8260   -0.4655   -0.4662 H   0  0  0  0  0  0  0  0  0  0  0  0
    1.4232    0.9376    0.4369 H   0  0  0  0  0  0  0  0  0  0  0  0
    2.2274   -1.9786    0.9362 H   0  0  0  0  0  0  0  0  0  0  0  0
    2.8582   -0.5948    1.8290 H   0  0  0  0  0  0  0  0  0  0  0  0
    3.1128   -0.9216   -1.1961 H   0  0  0  0  0  0  0  0  0  0  0  0
    4.3085    1.0297    0.8689 H   0  0  0  0  0  0  0  0  0  0  0  0
    3.4508    1.4411   -0.5926 H   0  0  0  0  0  0  0  0  0  0  0  0
    4.9130    2.6034   -2.0737 H   0  0  0  0  0  0  0  0  0  0  0  0
    4.8366    1.0074   -2.8403 H   0  0  0  0  0  0  0  0  0  0  0  0
    6.3916    1.8158   -2.5861 H   0  0  0  0  0  0  0  0  0  0  0  0
    7.2622    0.0597   -1.5978 H   0  0  0  0  0  0  0  0  0  0  0  0
    7.1425    0.8479    1.0016 H   0  0  0  0  0  0  0  0  0  0  0  0
    8.4027   -0.0538    0.2395 H   0  0  0  0  0  0  0  0  0  0  0  0
    7.3222   -4.0023    3.1486 H   0  0  0  0  0  0  0  0  0  0  0  0
    7.7872   -2.9913    5.7173 H   0  0  0  0  0  0  0  0  0  0  0  0
    8.0685   -0.8346    6.9236 H   0  0  0  0  0  0  0  0  0  0  0  0
    8.0322    1.3037    5.6901 H   0  0  0  0  0  0  0  0  0  0  0  0
    7.7321    1.3419    3.2336 H   0  0  0  0  0  0  0  0  0  0  0  0
    6.0048   -4.9028   -1.4012 H   0  0  0  0  0  0  0  0  0  0  0  0
    9.6204   -4.8531   -0.6888 H   0  0  0  0  0  0  0  0  0  0  0  0
   10.4446   -5.3776   -4.6999 H   0  0  0  0  0  0  0  0  0  0  0  0
    7.9924   -5.7262   -5.1442 H   0  0  0  0  0  0  0  0  0  0  0  0
    4.3709   -3.3013    1.3206 H   0  0  0  0  0  0  0  0  0  0  0  0
    4.4896   -3.8441   -0.3378 H   0  0  0  0  0  0  0  0  0  0  0  0
    5.1419   -1.1952    0.8778 H   0  0  0  0  0  0  0  0  0  0  0  0
    4.9684   -0.8833   -1.9619 H   0  0  0  0  0  0  0  0  0  0  0  0
    7.2279   -2.0036   -5.2706 H   0  0  0  0  0  0  0  0  0  0  0  0
    5.5010   -1.9018   -4.8767 H   0  0  0  0  0  0  0  0  0  0  0  0
    6.4005   -3.4176   -4.5909 H   0  0  0  0  0  0  0  0  0  0  0  0
  1  2  1  0  0  0  0
  1 34  1  0  0  0  0
  1 35  1  0  0  0  0
  1 36  1  0  0  0  0
  2 37  1  0  0  0  0
  2 38  1  0  0  0  0
  3  4  1  0  0  0  0
  3 28  1  0  0  0  0
  3  2  1  0  0  0  0
  3 39  1  1  0  0  0
  4  5  1  0  0  0  0
  4 40  1  0  0  0  0
  4 41  1  0  0  0  0
  5  6  1  0  0  0  0
  5  7  1  0  0  0  0
  6 42  1  0  0  0  0
  6 43  1  0  0  0  0
  6 44  1  0  0  0  0
  7  8  1  0  0  0  0
  7 29  1  0  0  0  0
  7 45  1  6  0  0  0
  8  9  1  0  0  0  0
  8 46  1  0  0  0  0
  8 47  1  0  0  0  0
  9 10  2  0  0  0  0
  9 17  1  0  0  0  0
 10 11  1  0  0  0  0
 10 18  1  0  0  0  0
 11 12  1  0  0  0  0
 11 48  1  0  0  0  0
 12 13  1  0  0  0  0
 12 17  2  0  0  0  0
 13 14  2  0  0  0  0
 13 49  1  0  0  0  0
 14 15  1  0  0  0  0
 14 50  1  0  0  0  0
 15 16  2  0  0  0  0
 15 51  1  0  0  0  0
 16 17  1  0  0  0  0
 16 52  1  0  0  0  0
 18 19  2  0  0  0  0
 18 27  1  0  0  0  0
 19 20  1  0  0  0  0
 20 21  1  0  0  0  0
 20 53  1  0  0  0  0
 21 22  1  0  0  0  0
 21 26  2  0  0  0  0
 22 23  2  0  0  0  0
 22 54  1  0  0  0  0
 23 24  1  0  0  0  0
 24 25  2  0  0  0  0
 24 55  1  0  0  0  0
 25 26  1  0  0  0  0
 25 56  1  0  0  0  0
 27 28  1  0  0  0  0
 27 57  1  0  0  0  0
 27 58  1  0  0  0  0
 28 29  1  0  0  0  0
 28 59  1  1  0  0  0
 29 30  1  0  0  0  0
 29 60  1  6  0  0  0
 30 31  2  0  0  0  0
 30 32  1  0  0  0  0
 32 33  1  0  0  0  0
 33 61  1  0  0  0  0
 33 62  1  0  0  0  0
 33 63  1  0  0  0  0
M  END
>  <Energy>
218.927

$$$$