23
 OpenBabel03292021433D

 59 62  0  0  1  0  0  0  0  0999 V2000
    1.9998   -0.6062   -0.1010 C   0  0  0  0  0  0  0  0  0  0  0  0
    3.0255    0.2498    0.6100 C   0  0  0  0  0  0  0  0  0  0  0  0
    3.8854    1.0943   -0.3446 C   0  0  1  0  0  0  0  0  0  0  0  0
    4.8912    2.0286    0.6134 C   0  0  0  0  0  0  0  0  0  0  0  0
    6.2540    2.4834    0.1188 N   0  0  0  0  0  0  0  0  0  0  0  0
    6.2913    3.8738   -0.3555 C   0  0  0  0  0  0  0  0  0  0  0  0
    6.8046    1.5429   -0.9139 C   0  0  1  0  0  0  0  0  0  0  0  0
    7.2905    0.3003   -0.0218 C   0  0  0  0  0  0  0  0  0  0  0  0
    7.3382   -1.1494   -0.4769 C   0  0  0  0  0  0  0  0  0  0  0  0
    7.0030   -1.7193   -1.6957 C   0  0  0  0  0  0  0  0  0  0  0  0
    7.3816   -3.0379   -1.6568 N   0  0  0  0  0  0  0  0  0  0  0  0
    7.5286   -3.4387   -0.3479 C   0  0  0  0  0  0  0  0  0  0  0  0
    7.6760   -4.7194    0.2010 C   0  0  0  0  0  0  0  0  0  0  0  0
    7.6575   -4.8315    1.5948 C   0  0  0  0  0  0  0  0  0  0  0  0
    7.5158   -3.7040    2.3989 C   0  0  0  0  0  0  0  0  0  0  0  0
    7.4415   -2.4252    1.8288 C   0  0  0  0  0  0  0  0  0  0  0  0
    7.4563   -2.2803    0.4228 C   0  0  0  0  0  0  0  0  0  0  0  0
    6.3243   -1.1045   -2.8128 C   0  0  0  0  0  0  0  0  0  0  0  0
    7.1296   -0.8230   -3.7946 N   0  0  0  0  0  0  0  0  0  0  0  0
    6.7418   -0.1567   -4.9132 N   0  0  0  0  0  0  0  0  0  0  0  0
    7.6452    0.4313   -5.7737 C   0  0  0  0  0  0  0  0  0  0  0  0
    8.9596    0.1662   -5.5247 N   0  0  0  0  0  0  0  0  0  0  0  0
    7.3179    1.1658   -6.6948 O   0  0  0  0  0  0  0  0  0  0  0  0
    4.7896   -0.7577   -2.5133 C   0  0  0  0  0  0  0  0  0  0  0  0
    4.7675    0.3320   -1.4024 C   0  0  1  0  0  0  0  0  0  0  0  0
    5.6370    1.4642   -1.9016 C   0  0  2  0  0  0  0  0  0  0  0  0
    5.6219    1.9328   -3.3579 C   0  0  0  0  0  0  0  0  0  0  0  0
    4.8845    1.4753   -4.2143 O   0  0  0  0  0  0  0  0  0  0  0  0
    6.3082    3.0983   -3.5169 O   0  0  0  0  0  0  0  0  0  0  0  0
    5.9595    3.8135   -4.7109 C   0  0  0  0  0  0  0  0  0  0  0  0
    1.1894   -0.8688    0.5875 H   0  0  0  0  0  0  0  0  0  0  0  0
    2.4535   -1.5356   -0.4544 H   0  0  0  0  0  0  0  0  0  0  0  0
    1.5638   -0.0776   -0.9528 H   0  0  0  0  0  0  0  0  0  0  0  0
    3.6518   -0.3830    1.2521 H   0  0  0  0  0  0  0  0  0  0  0  0
    2.4972    0.9350    1.2882 H   0  0  0  0  0  0  0  0  0  0  0  0
    3.2113    1.7871   -0.8667 H   0  0  0  0  0  0  0  0  0  0  0  0
    5.1005    1.4485    1.5224 H   0  0  0  0  0  0  0  0  0  0  0  0
    4.3250    2.8958    0.9756 H   0  0  0  0  0  0  0  0  0  0  0  0
    6.3907    4.5604    0.4878 H   0  0  0  0  0  0  0  0  0  0  0  0
    5.4058    4.1667   -0.9296 H   0  0  0  0  0  0  0  0  0  0  0  0
    7.1655    4.0484   -0.9984 H   0  0  0  0  0  0  0  0  0  0  0  0
    7.6970    1.9351   -1.4152 H   0  0  0  0  0  0  0  0  0  0  0  0
    6.6689    0.2462    0.8831 H   0  0  0  0  0  0  0  0  0  0  0  0
    8.2837    0.5542    0.3713 H   0  0  0  0  0  0  0  0  0  0  0  0
    7.3344   -3.6678   -2.4450 H   0  0  0  0  0  0  0  0  0  0  0  0
    7.7632   -5.6029   -0.4232 H   0  0  0  0  0  0  0  0  0  0  0  0
    7.7349   -5.8150    2.0552 H   0  0  0  0  0  0  0  0  0  0  0  0
    7.4538   -3.8169    3.4788 H   0  0  0  0  0  0  0  0  0  0  0  0
    7.3047   -1.5600    2.4712 H   0  0  0  0  0  0  0  0  0  0  0  0
    5.7789    0.1635   -5.0189 H   0  0  0  0  0  0  0  0  0  0  0  0
    9.1895   -0.1300   -4.5905 H   0  0  0  0  0  0  0  0  0  0  0  0
    9.6320    0.7147   -6.0484 H   0  0  0  0  0  0  0  0  0  0  0  0
    4.3240   -1.6778   -2.1374 H   0  0  0  0  0  0  0  0  0  0  0  0
    4.2533   -0.5044   -3.4258 H   0  0  0  0  0  0  0  0  0  0  0  0
    5.2027   -0.2950   -0.6335 H   0  0  0  0  0  0  0  0  0  0  0  0
    4.9965    2.3398   -1.7091 H   0  0  0  0  0  0  0  0  0  0  0  0
    6.1929    4.8699   -4.5541 H   0  0  0  0  0  0  0  0  0  0  0  0
    4.8877    3.7497   -4.9403 H   0  0  0  0  0  0  0  0  0  0  0  0
    6.5506    3.4388   -5.5476 H   0  0  0  0  0  0  0  0  0  0  0  0
  1  2  1  0  0  0  0
  1 31  1  0  0  0  0
  1 32  1  0  0  0  0
  1 33  1  0  0  0  0
  2  3  1  0  0  0  0
  2 34  1  0  0  0  0
  2 35  1  0  0  0  0
  3  4  1  0  0  0  0
  3 25  1  0  0  0  0
  3 36  1  6  0  0  0
  4  5  1  0  0  0  0
  4 37  1  0  0  0  0
  4 38  1  0  0  0  0
  5  6  1  0  0  0  0
  5  7  1  0  0  0  0
  6 39  1  0  0  0  0
  6 40  1  0  0  0  0
  6 41  1  0  0  0  0
  7  8  1  0  0  0  0
  7 26  1  0  0  0  0
  7 42  1  6  0  0  0
  8  9  1  0  0  0  0
  8 43  1  0  0  0  0
  8 44  1  0  0  0  0
  9 10  2  0  0  0  0
  9 17  1  0  0  0  0
 10 11  1  0  0  0  0
 10 18  1  0  0  0  0
 11 12  1  0  0  0  0
 11 45  1  0  0  0  0
 12 13  1  0  0  0  0
 12 17  2  0  0  0  0
 13 14  2  0  0  0  0
 13 46  1  0  0  0  0
 14 15  1  0  0  0  0
 14 47  1  0  0  0  0
 15 16  2  0  0  0  0
 15 48  1  0  0  0  0
 16 17  1  0  0  0  0
 16 49  1  0  0  0  0
 18 19  2  0  0  0  0
 18 24  1  0  0  0  0
 19 20  1  0  0  0  0
 20 21  1  0  0  0  0
 20 50  1  0  0  0  0
 21 22  1  0  0  0  0
 21 23  2  0  0  0  0
 22 51  1  0  0  0  0
 22 52  1  0  0  0  0
 24 25  1  0  0  0  0
 24 53  1  0  0  0  0
 24 54  1  0  0  0  0
 25 26  1  0  0  0  0
 25 55  1  1  0  0  0
 26 27  1  0  0  0  0
 26 56  1  1  0  0  0
 27 28  2  0  0  0  0
 27 29  1  0  0  0  0
 29 30  1  0  0  0  0
 30 57  1  0  0  0  0
 30 58  1  0  0  0  0
 30 59  1  0  0  0  0
M  END
>  <Energy>
140.801

$$$$