137647673
  -OEChem-03242010103D

 72 75  0     1  0  0  0  0  0999 V2000
   -3.7635   -2.1021   -1.0598 O   0  0  0  0  0  0  0  0  0  0  0  0
   -4.6393   -0.1301   -1.8852 O   0  0  0  0  0  0  0  0  0  0  0  0
    0.3926    2.1297    0.8562 O   0  0  0  0  0  0  0  0  0  0  0  0
   -3.7206   -0.0097    1.4034 N   0  0  2  0  0  0  0  0  0  0  0  0
    1.7794   -0.4386   -0.2600 N   0  0  0  0  0  0  0  0  0  0  0  0
    4.7520    1.8255   -0.3204 N   0  0  0  0  0  0  0  0  0  0  0  0
   -2.4130    1.3554   -1.0001 C   0  0  1  0  0  0  0  0  0  0  0  0
   -2.5230   -0.1388   -0.7184 C   0  0  1  0  0  0  0  0  0  0  0  0
   -3.1621    2.1724    0.1094 C   0  0  2  0  0  0  0  0  0  0  0  0
   -2.4026   -0.2814    0.8187 C   0  0  2  0  0  0  0  0  0  0  0  0
   -4.2096    1.3127    0.9027 C   0  0  0  0  0  0  0  0  0  0  0  0
   -0.9006    1.7072   -1.1212 C   0  0  0  0  0  0  0  0  0  0  0  0
   -1.5230   -1.4872    1.1446 C   0  0  0  0  0  0  0  0  0  0  0  0
   -3.8354    3.4088   -0.4899 C   0  0  0  0  0  0  0  0  0  0  0  0
   -0.1081   -1.2794    0.5916 C   0  0  0  0  0  0  0  0  0  0  0  0
   -3.7702   -0.7595   -1.2970 C   0  0  0  0  0  0  0  0  0  0  0  0
    0.4985   -0.1032    0.1145 C   0  0  0  0  0  0  0  0  0  0  0  0
    0.0303    1.2854    0.0356 C   0  0  0  0  0  0  0  0  0  0  0  0
   -3.7151   -0.0598    2.8618 C   0  0  0  0  0  0  0  0  0  0  0  0
    0.8614   -2.3318    0.4641 C   0  0  0  0  0  0  0  0  0  0  0  0
   -4.5290    4.2298    0.5785 C   0  0  0  0  0  0  0  0  0  0  0  0
    2.0209   -1.7759   -0.0707 C   0  0  0  0  0  0  0  0  0  0  0  0
    2.7484    0.4976   -0.7972 C   0  0  0  0  0  0  0  0  0  0  0  0
    0.8532   -3.7120    0.7603 C   0  0  0  0  0  0  0  0  0  0  0  0
    3.1742   -2.5264   -0.3277 C   0  0  0  0  0  0  0  0  0  0  0  0
    3.7871    0.8936    0.2515 C   0  0  0  0  0  0  0  0  0  0  0  0
    1.9977   -4.4770    0.5089 C   0  0  0  0  0  0  0  0  0  0  0  0
    3.1405   -3.8905   -0.0279 C   0  0  0  0  0  0  0  0  0  0  0  0
   -4.8962   -2.8203   -1.5588 C   0  0  0  0  0  0  0  0  0  0  0  0
    5.7555    1.1085   -1.1091 C   0  0  0  0  0  0  0  0  0  0  0  0
    5.3991    2.6088    0.7335 C   0  0  0  0  0  0  0  0  0  0  0  0
    6.7294    2.0725   -1.7653 C   0  0  0  0  0  0  0  0  0  0  0  0
    6.1912    1.7157    1.6733 C   0  0  0  0  0  0  0  0  0  0  0  0
   -2.8597    1.5868   -1.9759 H   0  0  0  0  0  0  0  0  0  0  0  0
   -1.7258   -0.6504   -1.2724 H   0  0  0  0  0  0  0  0  0  0  0  0
   -2.4240    2.5351    0.8385 H   0  0  0  0  0  0  0  0  0  0  0  0
   -1.8008    0.5237    1.2500 H   0  0  0  0  0  0  0  0  0  0  0  0
   -4.5811    1.8982    1.7520 H   0  0  0  0  0  0  0  0  0  0  0  0
   -5.0885    1.1273    0.2746 H   0  0  0  0  0  0  0  0  0  0  0  0
   -0.7935    2.7918   -1.2486 H   0  0  0  0  0  0  0  0  0  0  0  0
   -0.4962    1.2600   -2.0389 H   0  0  0  0  0  0  0  0  0  0  0  0
   -1.9510   -2.4117    0.7437 H   0  0  0  0  0  0  0  0  0  0  0  0
   -1.4305   -1.6153    2.2295 H   0  0  0  0  0  0  0  0  0  0  0  0
   -3.0793    4.0313   -0.9831 H   0  0  0  0  0  0  0  0  0  0  0  0
   -4.5646    3.1212   -1.2565 H   0  0  0  0  0  0  0  0  0  0  0  0
   -3.4392   -1.0581    3.2166 H   0  0  0  0  0  0  0  0  0  0  0  0
   -4.7191    0.1349    3.2555 H   0  0  0  0  0  0  0  0  0  0  0  0
   -3.0251    0.6701    3.2999 H   0  0  0  0  0  0  0  0  0  0  0  0
   -5.4421    3.7481    0.9403 H   0  0  0  0  0  0  0  0  0  0  0  0
   -4.8291    5.1973    0.1616 H   0  0  0  0  0  0  0  0  0  0  0  0
   -3.8698    4.4269    1.4300 H   0  0  0  0  0  0  0  0  0  0  0  0
    3.1989    0.0084   -1.6678 H   0  0  0  0  0  0  0  0  0  0  0  0
    2.2267    1.3794   -1.1839 H   0  0  0  0  0  0  0  0  0  0  0  0
   -0.0301   -4.1851    1.1802 H   0  0  0  0  0  0  0  0  0  0  0  0
    4.0701   -2.0803   -0.7464 H   0  0  0  0  0  0  0  0  0  0  0  0
    3.2420    1.3673    1.0797 H   0  0  0  0  0  0  0  0  0  0  0  0
    4.2696    0.0032    0.6724 H   0  0  0  0  0  0  0  0  0  0  0  0
    1.9926   -5.5398    0.7358 H   0  0  0  0  0  0  0  0  0  0  0  0
    4.0197   -4.5011   -0.2164 H   0  0  0  0  0  0  0  0  0  0  0  0
   -4.7684   -3.8758   -1.3043 H   0  0  0  0  0  0  0  0  0  0  0  0
   -4.9550   -2.7258   -2.6473 H   0  0  0  0  0  0  0  0  0  0  0  0
   -5.8136   -2.4540   -1.0882 H   0  0  0  0  0  0  0  0  0  0  0  0
    4.6329    3.1450    1.3085 H   0  0  0  0  0  0  0  0  0  0  0  0
    5.2570    0.5812   -1.9306 H   0  0  0  0  0  0  0  0  0  0  0  0
    6.2954    0.3353   -0.5510 H   0  0  0  0  0  0  0  0  0  0  0  0
    6.0345    3.4021    0.3259 H   0  0  0  0  0  0  0  0  0  0  0  0
    6.5854    2.3340    2.4892 H   0  0  0  0  0  0  0  0  0  0  0  0
    7.0633    1.2544    1.2019 H   0  0  0  0  0  0  0  0  0  0  0  0
    7.3126    1.5421   -2.5266 H   0  0  0  0  0  0  0  0  0  0  0  0
    7.4491    2.4919   -1.0559 H   0  0  0  0  0  0  0  0  0  0  0  0
    6.2088    2.8939   -2.2697 H   0  0  0  0  0  0  0  0  0  0  0  0
    5.5896    0.9374    2.1508 H   0  0  0  0  0  0  0  0  0  0  0  0
  1 16  1  0  0  0  0
  1 29  1  0  0  0  0
  2 16  2  0  0  0  0
  3 18  2  0  0  0  0
  4 10  1  0  0  0  0
  4 11  1  0  0  0  0
  4 19  1  0  0  0  0
  5 17  1  0  0  0  0
  5 22  1  0  0  0  0
  5 23  1  0  0  0  0
  6 26  1  0  0  0  0
  6 30  1  0  0  0  0
  6 31  1  0  0  0  0
  7  8  1  0  0  0  0
  7  9  1  0  0  0  0
  7 12  1  0  0  0  0
  7 34  1  0  0  0  0
  8 10  1  0  0  0  0
  8 16  1  0  0  0  0
  8 35  1  0  0  0  0
  9 11  1  0  0  0  0
  9 14  1  0  0  0  0
  9 36  1  0  0  0  0
 10 13  1  0  0  0  0
 10 37  1  0  0  0  0
 11 38  1  0  0  0  0
 11 39  1  0  0  0  0
 12 18  1  0  0  0  0
 12 40  1  0  0  0  0
 12 41  1  0  0  0  0
 13 15  1  0  0  0  0
 13 42  1  0  0  0  0
 13 43  1  0  0  0  0
 14 21  1  0  0  0  0
 14 44  1  0  0  0  0
 14 45  1  0  0  0  0
 15 17  2  0  0  0  0
 15 20  1  0  0  0  0
 17 18  1  0  0  0  0
 19 46  1  0  0  0  0
 19 47  1  0  0  0  0
 19 48  1  0  0  0  0
 20 22  1  0  0  0  0
 20 24  2  0  0  0  0
 21 49  1  0  0  0  0
 21 50  1  0  0  0  0
 21 51  1  0  0  0  0
 22 25  2  0  0  0  0
 23 26  1  0  0  0  0
 23 52  1  0  0  0  0
 23 53  1  0  0  0  0
 24 27  1  0  0  0  0
 24 54  1  0  0  0  0
 25 28  1  0  0  0  0
 25 55  1  0  0  0  0
 26 56  1  0  0  0  0
 26 57  1  0  0  0  0
 27 28  2  0  0  0  0
 27 58  1  0  0  0  0
 28 59  1  0  0  0  0
 29 60  1  0  0  0  0
 29 61  1  0  0  0  0
 29 62  1  0  0  0  0
 30 32  1  0  0  0  0
 30 64  1  0  0  0  0
 30 65  1  0  0  0  0
 31 33  1  0  0  0  0
 31 63  1  0  0  0  0
 31 66  1  0  0  0  0
 32 69  1  0  0  0  0
 32 70  1  0  0  0  0
 32 71  1  0  0  0  0
 33 67  1  0  0  0  0
 33 68  1  0  0  0  0
 33 72  1  0  0  0  0
M  END
> <PUBCHEM_COMPOUND_CID>
137647673

> <PUBCHEM_CONFORMER_RMSD>
1

> <PUBCHEM_CONFORMER_DIVERSEORDER>
1
8
19
10
7
11
20
17
14
15
12
13
18
6
2
16
9
3
5
4

> <PUBCHEM_MMFF94_PARTIAL_CHARGES>
30
1 -0.43
10 0.27
11 0.27
12 0.06
13 0.18
15 -0.18
16 0.66
17 -0.24
18 0.59
19 0.27
2 -0.57
22 -0.15
23 0.26
24 -0.15
25 -0.15
26 0.27
27 -0.15
28 -0.15
29 0.28
3 -0.57
30 0.27
31 0.27
4 -0.81
5 0.05
54 0.15
55 0.15
58 0.15
59 0.15
6 -0.81
8 0.06

> <PUBCHEM_EFFECTIVE_ROTOR_COUNT>
9.2

> <PUBCHEM_PHARMACOPHORE_FEATURES>
9
1 2 acceptor
1 21 hydrophobe
1 3 acceptor
1 4 cation
1 5 cation
1 6 cation
5 5 15 17 20 22 rings
6 20 22 24 25 27 28 rings
6 4 7 8 9 10 11 rings

> <PUBCHEM_HEAVY_ATOM_COUNT>
33

> <PUBCHEM_ATOM_DEF_STEREO_COUNT>
4

> <PUBCHEM_ATOM_UDEF_STEREO_COUNT>
0

> <PUBCHEM_BOND_DEF_STEREO_COUNT>
0

> <PUBCHEM_BOND_UDEF_STEREO_COUNT>
0

> <PUBCHEM_ISOTOPIC_ATOM_COUNT>
0

> <PUBCHEM_COMPONENT_COUNT>
1

> <PUBCHEM_CACTVS_TAUTO_COUNT>
-1

> <PUBCHEM_CONFORMER_ID>
0834563900000001

> <PUBCHEM_MMFF94_ENERGY>
106.4208

> <PUBCHEM_FEATURE_SELFOVERLAP>
45.76

> <PUBCHEM_SHAPE_FINGERPRINT>
11007060 377 18197783404617839704
11331351 85 17550661115979433546
11578080 2 18338526222531684201
12422481 6 17604148134506536836
13140716 1 17757004658586041531
13540713 4 17896898568494256819
13631057 29 18058156409931493439
13911987 19 18116433828669228668
14790565 3 18263659501303089572
15775530 1 17463388548697296548
17980427 23 17385733520918516148
20681651 13 18131348579688732483
21033648 29 16807015317141715829
21796203 349 17762369936355259570
21814621 53 15913060815561632426
22182313 1 17895205367378798323
22393880 68 18343305834116134846
23559900 14 18124023538804130802
23569917 315 18338230587692000058
283562 15 18339072813149333681
469060 322 18191317163643693987
5104073 3 18042694909411535505
563151 97 18408601482808307847
5912855 24 18341894070161269423
6371009 1 18263914617849129420
9981440 41 18335415790146328170

> <PUBCHEM_SHAPE_MULTIPOLES>
646.57
12.99
5.19
1.68
12.17
2.59
-0.37
-10.19
1.94
1.09
-0.25
-1.08
-0.14
-1.36

> <PUBCHEM_SHAPE_SELFOVERLAP>
1364.657

> <PUBCHEM_SHAPE_VOLUME>
362.3

> <PUBCHEM_COORDINATE_TYPE>
2
5
10

$$$$