137658891
  -OEChem-03242010103D

 56 58  0     0  0  0  0  0  0999 V2000
    0.3680    4.3389    0.3272 Br  0  0  0  0  0  0  0  0  0  0  0  0
    0.5376    0.9372    2.8744 O   0  0  0  0  0  0  0  0  0  0  0  0
    3.4238    0.4692   -0.2792 O   0  0  0  0  0  0  0  0  0  0  0  0
   -2.6882   -2.1401   -0.2106 O   0  0  0  0  0  0  0  0  0  0  0  0
    1.9543    1.4627   -1.7670 O   0  0  0  0  0  0  0  0  0  0  0  0
   -1.7002   -2.0994    1.8826 O   0  0  0  0  0  0  0  0  0  0  0  0
    1.4799   -3.1013   -1.1035 N   0  0  0  0  0  0  0  0  0  0  0  0
   -0.3267    1.8441    2.2731 N   0  0  0  0  0  0  0  0  0  0  0  0
    0.1811   -0.6839   -0.4055 C   0  0  0  0  0  0  0  0  0  0  0  0
    1.6033   -0.7423   -0.9718 C   0  0  0  0  0  0  0  0  0  0  0  0
   -0.3984   -2.0705   -0.0977 C   0  0  0  0  0  0  0  0  0  0  0  0
    0.1574    0.1585    0.8202 C   0  0  0  0  0  0  0  0  0  0  0  0
    2.1714   -1.9197   -1.3165 C   0  0  0  0  0  0  0  0  0  0  0  0
    0.2523   -3.1977   -0.4663 C   0  0  0  0  0  0  0  0  0  0  0  0
   -0.5394    1.3579    1.0470 C   0  0  0  0  0  0  0  0  0  0  0  0
    0.8186   -0.0620    1.9993 C   0  0  0  0  0  0  0  0  0  0  0  0
   -1.6560   -2.1043    0.6664 C   0  0  0  0  0  0  0  0  0  0  0  0
    2.3268    0.5358   -1.0717 C   0  0  0  0  0  0  0  0  0  0  0  0
    3.5369   -2.0840   -1.9270 C   0  0  0  0  0  0  0  0  0  0  0  0
   -0.2428   -4.6025   -0.2519 C   0  0  0  0  0  0  0  0  0  0  0  0
   -1.4025    2.0543    0.1292 C   0  0  0  0  0  0  0  0  0  0  0  0
    1.7256   -1.1130    2.4792 C   0  0  0  0  0  0  0  0  0  0  0  0
   -1.1444    3.3618   -0.2825 C   0  0  0  0  0  0  0  0  0  0  0  0
   -2.5277    1.3821   -0.3479 C   0  0  0  0  0  0  0  0  0  0  0  0
    4.2379    1.6464   -0.2694 C   0  0  0  0  0  0  0  0  0  0  0  0
   -3.9896   -2.1765    0.3847 C   0  0  0  0  0  0  0  0  0  0  0  0
   -2.0116    3.9970   -1.1714 C   0  0  0  0  0  0  0  0  0  0  0  0
   -3.3949    2.0173   -1.2367 C   0  0  0  0  0  0  0  0  0  0  0  0
   -3.1369    3.3248   -1.6486 C   0  0  0  0  0  0  0  0  0  0  0  0
    5.4167    1.4231    0.6538 C   0  0  0  0  0  0  0  0  0  0  0  0
   -5.0326   -2.2137   -0.7119 C   0  0  0  0  0  0  0  0  0  0  0  0
   -0.4454   -0.2431   -1.1909 H   0  0  0  0  0  0  0  0  0  0  0  0
    1.9376   -3.9662   -1.3689 H   0  0  0  0  0  0  0  0  0  0  0  0
    4.2272   -2.5180   -1.1963 H   0  0  0  0  0  0  0  0  0  0  0  0
   -0.3390   -5.1202   -1.2124 H   0  0  0  0  0  0  0  0  0  0  0  0
   -1.2186   -4.6402    0.2404 H   0  0  0  0  0  0  0  0  0  0  0  0
    0.4636   -5.1605    0.3721 H   0  0  0  0  0  0  0  0  0  0  0  0
    3.9627   -1.1420   -2.2840 H   0  0  0  0  0  0  0  0  0  0  0  0
    3.4875   -2.7535   -2.7931 H   0  0  0  0  0  0  0  0  0  0  0  0
    2.6225   -1.1751    1.8571 H   0  0  0  0  0  0  0  0  0  0  0  0
    1.2322   -2.0892    2.4718 H   0  0  0  0  0  0  0  0  0  0  0  0
    2.0512   -0.9169    3.5061 H   0  0  0  0  0  0  0  0  0  0  0  0
   -2.7662    0.3797   -0.0216 H   0  0  0  0  0  0  0  0  0  0  0  0
    4.5957    1.8515   -1.2845 H   0  0  0  0  0  0  0  0  0  0  0  0
   -4.0784   -3.0744    1.0068 H   0  0  0  0  0  0  0  0  0  0  0  0
   -4.1376   -1.2896    1.0106 H   0  0  0  0  0  0  0  0  0  0  0  0
    3.6451    2.4966    0.0863 H   0  0  0  0  0  0  0  0  0  0  0  0
   -1.8284    5.0156   -1.5040 H   0  0  0  0  0  0  0  0  0  0  0  0
   -4.2746    1.4961   -1.6028 H   0  0  0  0  0  0  0  0  0  0  0  0
   -3.8131    3.8197   -2.3395 H   0  0  0  0  0  0  0  0  0  0  0  0
    5.0730    1.1982    1.6689 H   0  0  0  0  0  0  0  0  0  0  0  0
    6.0087    0.5640    0.3212 H   0  0  0  0  0  0  0  0  0  0  0  0
    6.0614    2.3058    0.6860 H   0  0  0  0  0  0  0  0  0  0  0  0
   -4.9460   -1.3319   -1.3553 H   0  0  0  0  0  0  0  0  0  0  0  0
   -4.8874   -3.0899   -1.3523 H   0  0  0  0  0  0  0  0  0  0  0  0
   -6.0414   -2.2464   -0.2913 H   0  0  0  0  0  0  0  0  0  0  0  0
  1 23  1  0  0  0  0
  2  8  1  0  0  0  0
  2 16  1  0  0  0  0
  3 18  1  0  0  0  0
  3 25  1  0  0  0  0
  4 17  1  0  0  0  0
  4 26  1  0  0  0  0
  5 18  2  0  0  0  0
  6 17  2  0  0  0  0
  7 13  1  0  0  0  0
  7 14  1  0  0  0  0
  7 33  1  0  0  0  0
  8 15  2  0  0  0  0
  9 10  1  0  0  0  0
  9 11  1  0  0  0  0
  9 12  1  0  0  0  0
  9 32  1  0  0  0  0
 10 13  2  0  0  0  0
 10 18  1  0  0  0  0
 11 14  2  0  0  0  0
 11 17  1  0  0  0  0
 12 15  1  0  0  0  0
 12 16  2  0  0  0  0
 13 19  1  0  0  0  0
 14 20  1  0  0  0  0
 15 21  1  0  0  0  0
 16 22  1  0  0  0  0
 19 34  1  0  0  0  0
 19 38  1  0  0  0  0
 19 39  1  0  0  0  0
 20 35  1  0  0  0  0
 20 36  1  0  0  0  0
 20 37  1  0  0  0  0
 21 23  1  0  0  0  0
 21 24  2  0  0  0  0
 22 40  1  0  0  0  0
 22 41  1  0  0  0  0
 22 42  1  0  0  0  0
 23 27  2  0  0  0  0
 24 28  1  0  0  0  0
 24 43  1  0  0  0  0
 25 30  1  0  0  0  0
 25 44  1  0  0  0  0
 25 47  1  0  0  0  0
 26 31  1  0  0  0  0
 26 45  1  0  0  0  0
 26 46  1  0  0  0  0
 27 29  1  0  0  0  0
 27 48  1  0  0  0  0
 28 29  2  0  0  0  0
 28 49  1  0  0  0  0
 29 50  1  0  0  0  0
 30 51  1  0  0  0  0
 30 52  1  0  0  0  0
 30 53  1  0  0  0  0
 31 54  1  0  0  0  0
 31 55  1  0  0  0  0
 31 56  1  0  0  0  0
M  END
> <PUBCHEM_COMPOUND_CID>
137658891

> <PUBCHEM_CONFORMER_RMSD>
1

> <PUBCHEM_CONFORMER_DIVERSEORDER>
1
16
18
6
23
4
10
5
12
13
17
24
20
22
21
19
8
15
14
7
9
11
26
3
25
2

> <PUBCHEM_MMFF94_PARTIAL_CHARGES>
34
1 -0.11
10 -0.12
11 -0.12
12 -0.18
13 -0.04
14 -0.04
15 0.23
16 -0.04
17 0.71
18 0.71
19 0.14
2 -0.02
20 0.14
21 0.05
22 0.18
23 0.11
24 -0.15
25 0.28
26 0.28
27 -0.15
28 -0.15
29 -0.15
3 -0.43
33 0.4
4 -0.43
43 0.15
48 0.15
49 0.15
5 -0.57
50 0.15
6 -0.57
7 -0.6
8 -0.41
9 0.46

> <PUBCHEM_EFFECTIVE_ROTOR_COUNT>
8.4

> <PUBCHEM_PHARMACOPHORE_FEATURES>
9
1 1 hydrophobe
1 5 acceptor
1 6 acceptor
1 7 cation
1 7 donor
1 8 acceptor
5 2 8 12 15 16 rings
6 21 23 24 27 28 29 rings
6 7 9 10 11 13 14 rings

> <PUBCHEM_HEAVY_ATOM_COUNT>
31

> <PUBCHEM_ATOM_DEF_STEREO_COUNT>
0

> <PUBCHEM_ATOM_UDEF_STEREO_COUNT>
0

> <PUBCHEM_BOND_DEF_STEREO_COUNT>
0

> <PUBCHEM_BOND_UDEF_STEREO_COUNT>
0

> <PUBCHEM_ISOTOPIC_ATOM_COUNT>
0

> <PUBCHEM_COMPONENT_COUNT>
1

> <PUBCHEM_CACTVS_TAUTO_COUNT>
-1

> <PUBCHEM_CONFORMER_ID>
0834820B00000001

> <PUBCHEM_MMFF94_ENERGY>
67.8841

> <PUBCHEM_FEATURE_SELFOVERLAP>
45.671

> <PUBCHEM_SHAPE_FINGERPRINT>
10838868 49 17974812286110996688
10930396 42 17837461388322399552
11370993 70 18266733589458071412
11421498 54 17677598916908160819
11578080 2 17988371390004800944
11582403 64 17532378547926507128
11725454 13 17315651603314962596
12156800 1 17973689684338636600
12467345 10 17895176827690154578
12788726 201 18042412502970187744
13140716 1 18268166282989282938
15210252 30 18186803612856628325
15219462 58 16662365851522114432
16945 1 17908994205327139130
17492 54 17900839449949097957
20600515 1 17698189548481306820
21285901 2 18342464793414880479
23419403 2 17703783738751717760
238 59 17614297562658727309
3380486 145 18266203714858217481
350125 39 18053980344599715014
35225 105 17397204755537261492
4409770 3 18337379560689102822
463206 1 16679792836250424557
469060 322 18267042710859574425
57527358 35 15214149772080674591
9981440 41 18338226073210737048

> <PUBCHEM_SHAPE_MULTIPOLES>
604.6
6.61
5.98
2.07
1.24
0.29
-1.13
-1.22
2.61
-3.26
1.13
0.79
-0.2
1.77

> <PUBCHEM_SHAPE_SELFOVERLAP>
1280.08

> <PUBCHEM_SHAPE_VOLUME>
345.1

> <PUBCHEM_COORDINATE_TYPE>
2
5
10

$$$$