137661609
  -OEChem-03242010103D

 80 86  0     1  0  0  0  0  0999 V2000
    0.7580    0.5165   -0.7649 O   0  0  0  0  0  0  0  0  0  0  0  0
    2.0090    0.4702   -2.7064 O   0  0  0  0  0  0  0  0  0  0  0  0
    0.5820   -2.5523    1.9335 O   0  0  0  0  0  0  0  0  0  0  0  0
   -1.6132   -2.8941    2.5664 O   0  0  0  0  0  0  0  0  0  0  0  0
   -3.2369   -2.7188    0.4159 N   0  0  2  0  0  0  0  0  0  0  0  0
   -1.5329    2.5341   -1.2521 N   0  0  0  0  0  0  0  0  0  0  0  0
    3.0804    0.7494   -0.5684 C   0  0  0  0  0  0  0  0  0  0  0  0
    5.5928    0.9797   -0.4284 C   0  0  0  0  0  0  0  0  0  0  0  0
    4.1202    2.2424    1.1841 C   0  0  0  0  0  0  0  0  0  0  0  0
    4.3404   -0.2634    1.3736 C   0  0  0  0  0  0  0  0  0  0  0  0
    4.3936    0.8037   -1.3763 C   0  0  0  0  0  0  0  0  0  0  0  0
    2.9270    2.0604    0.2293 C   0  0  0  0  0  0  0  0  0  0  0  0
    3.1462   -0.4345    0.4187 C   0  0  0  0  0  0  0  0  0  0  0  0
    4.1763    1.0511    2.1563 C   0  0  0  0  0  0  0  0  0  0  0  0
    5.4215    2.2872    0.3645 C   0  0  0  0  0  0  0  0  0  0  0  0
    5.6401   -0.2045    0.5525 C   0  0  0  0  0  0  0  0  0  0  0  0
    1.9134    0.5635   -1.4901 C   0  0  0  0  0  0  0  0  0  0  0  0
   -0.5166   -2.1902   -0.6867 C   0  0  2  0  0  0  0  0  0  0  0  0
   -0.4390    0.3412   -1.5229 C   0  0  1  0  0  0  0  0  0  0  0  0
   -1.0935   -1.6016    0.5900 C   0  0  1  0  0  0  0  0  0  0  0  0
   -0.6703   -1.1557   -1.8514 C   0  0  0  0  0  0  0  0  0  0  0  0
   -1.2225   -3.5667   -0.9331 C   0  0  1  0  0  0  0  0  0  0  0  0
   -2.5918   -1.4062    0.2963 C   0  0  2  0  0  0  0  0  0  0  0  0
   -2.7750   -3.5338   -0.7465 C   0  0  0  0  0  0  0  0  0  0  0  0
   -1.5137    1.2075   -0.8508 C   0  0  0  0  0  0  0  0  0  0  0  0
   -3.0298   -0.1065    0.9486 C   0  0  0  0  0  0  0  0  0  0  0  0
   -2.5177    1.0942    0.1370 C   0  0  0  0  0  0  0  0  0  0  0  0
   -0.8544   -4.1813   -2.2837 C   0  0  0  0  0  0  0  0  0  0  0  0
   -0.7701   -2.4249    1.8140 C   0  0  0  0  0  0  0  0  0  0  0  0
   -3.0985    2.4049    0.3070 C   0  0  0  0  0  0  0  0  0  0  0  0
   -4.6942   -2.6436    0.4356 C   0  0  0  0  0  0  0  0  0  0  0  0
   -2.4634    3.2707   -0.5723 C   0  0  0  0  0  0  0  0  0  0  0  0
    0.6463   -4.3401   -2.4266 C   0  0  0  0  0  0  0  0  0  0  0  0
   -4.1166    2.9250    1.1374 C   0  0  0  0  0  0  0  0  0  0  0  0
   -2.7835    4.6298   -0.6720 C   0  0  0  0  0  0  0  0  0  0  0  0
   -4.4517    4.2812    1.0534 C   0  0  0  0  0  0  0  0  0  0  0  0
   -3.7926    5.1204    0.1600 C   0  0  0  0  0  0  0  0  0  0  0  0
    1.0308   -3.3148    3.0583 C   0  0  0  0  0  0  0  0  0  0  0  0
    4.3804   -1.1075    2.0710 H   0  0  0  0  0  0  0  0  0  0  0  0
    6.5214    1.0173   -1.0087 H   0  0  0  0  0  0  0  0  0  0  0  0
    4.0050    3.1752    1.7472 H   0  0  0  0  0  0  0  0  0  0  0  0
    1.9964    2.0626    0.8117 H   0  0  0  0  0  0  0  0  0  0  0  0
    4.5223   -0.1145   -1.9647 H   0  0  0  0  0  0  0  0  0  0  0  0
    2.8609    2.9162   -0.4553 H   0  0  0  0  0  0  0  0  0  0  0  0
    2.2247   -0.5047    1.0098 H   0  0  0  0  0  0  0  0  0  0  0  0
    3.2344   -1.3831   -0.1270 H   0  0  0  0  0  0  0  0  0  0  0  0
    4.3685    1.6323   -2.0965 H   0  0  0  0  0  0  0  0  0  0  0  0
    5.0123    1.1773    2.8551 H   0  0  0  0  0  0  0  0  0  0  0  0
    5.4018    3.1419   -0.3227 H   0  0  0  0  0  0  0  0  0  0  0  0
    6.2793    2.4350    1.0321 H   0  0  0  0  0  0  0  0  0  0  0  0
    3.2601    1.0160    2.7587 H   0  0  0  0  0  0  0  0  0  0  0  0
    6.5019   -0.1008    1.2231 H   0  0  0  0  0  0  0  0  0  0  0  0
    5.7769   -1.1426    0.0007 H   0  0  0  0  0  0  0  0  0  0  0  0
    0.5577   -2.3656   -0.5487 H   0  0  0  0  0  0  0  0  0  0  0  0
   -0.3089    0.8111   -2.5110 H   0  0  0  0  0  0  0  0  0  0  0  0
   -0.6129   -0.6485    0.8287 H   0  0  0  0  0  0  0  0  0  0  0  0
   -1.6281   -1.2676   -2.3726 H   0  0  0  0  0  0  0  0  0  0  0  0
    0.0786   -1.4344   -2.6037 H   0  0  0  0  0  0  0  0  0  0  0  0
   -0.8467   -4.2514   -0.1579 H   0  0  0  0  0  0  0  0  0  0  0  0
   -2.7837   -1.1569   -0.7517 H   0  0  0  0  0  0  0  0  0  0  0  0
   -3.2363   -3.1590   -1.6711 H   0  0  0  0  0  0  0  0  0  0  0  0
   -3.1269   -4.5651   -0.6161 H   0  0  0  0  0  0  0  0  0  0  0  0
   -2.6869   -0.0301    1.9870 H   0  0  0  0  0  0  0  0  0  0  0  0
   -4.1242   -0.0461    0.9635 H   0  0  0  0  0  0  0  0  0  0  0  0
   -1.2442   -3.5819   -3.1138 H   0  0  0  0  0  0  0  0  0  0  0  0
   -1.3210   -5.1706   -2.3680 H   0  0  0  0  0  0  0  0  0  0  0  0
   -0.9121    2.9194   -1.9499 H   0  0  0  0  0  0  0  0  0  0  0  0
   -5.0409   -2.1308    1.3388 H   0  0  0  0  0  0  0  0  0  0  0  0
   -5.1294   -3.6487    0.4678 H   0  0  0  0  0  0  0  0  0  0  0  0
   -5.0976   -2.1231   -0.4403 H   0  0  0  0  0  0  0  0  0  0  0  0
    1.1704   -3.3855   -2.5120 H   0  0  0  0  0  0  0  0  0  0  0  0
    0.8711   -4.9079   -3.3360 H   0  0  0  0  0  0  0  0  0  0  0  0
    1.0697   -4.8919   -1.5809 H   0  0  0  0  0  0  0  0  0  0  0  0
   -4.6411    2.2852    1.8418 H   0  0  0  0  0  0  0  0  0  0  0  0
   -2.2685    5.2826   -1.3689 H   0  0  0  0  0  0  0  0  0  0  0  0
   -5.2342    4.6811    1.6927 H   0  0  0  0  0  0  0  0  0  0  0  0
   -4.0654    6.1711    0.1078 H   0  0  0  0  0  0  0  0  0  0  0  0
    2.1238   -3.3312    3.0425 H   0  0  0  0  0  0  0  0  0  0  0  0
    0.6624   -4.3427    2.9891 H   0  0  0  0  0  0  0  0  0  0  0  0
    0.6999   -2.8464    3.9901 H   0  0  0  0  0  0  0  0  0  0  0  0
  1 17  1  0  0  0  0
  1 19  1  0  0  0  0
  2 17  2  0  0  0  0
  3 29  1  0  0  0  0
  3 38  1  0  0  0  0
  4 29  2  0  0  0  0
  5 23  1  0  0  0  0
  5 24  1  0  0  0  0
  5 31  1  0  0  0  0
  6 25  1  0  0  0  0
  6 32  1  0  0  0  0
  6 67  1  0  0  0  0
  7 11  1  0  0  0  0
  7 12  1  0  0  0  0
  7 13  1  0  0  0  0
  7 17  1  0  0  0  0
  8 11  1  0  0  0  0
  8 15  1  0  0  0  0
  8 16  1  0  0  0  0
  8 40  1  0  0  0  0
  9 12  1  0  0  0  0
  9 14  1  0  0  0  0
  9 15  1  0  0  0  0
  9 41  1  0  0  0  0
 10 13  1  0  0  0  0
 10 14  1  0  0  0  0
 10 16  1  0  0  0  0
 10 39  1  0  0  0  0
 11 43  1  0  0  0  0
 11 47  1  0  0  0  0
 12 42  1  0  0  0  0
 12 44  1  0  0  0  0
 13 45  1  0  0  0  0
 13 46  1  0  0  0  0
 14 48  1  0  0  0  0
 14 51  1  0  0  0  0
 15 49  1  0  0  0  0
 15 50  1  0  0  0  0
 16 52  1  0  0  0  0
 16 53  1  0  0  0  0
 18 20  1  0  0  0  0
 18 21  1  0  0  0  0
 18 22  1  0  0  0  0
 18 54  1  0  0  0  0
 19 21  1  0  0  0  0
 19 25  1  0  0  0  0
 19 55  1  0  0  0  0
 20 23  1  0  0  0  0
 20 29  1  0  0  0  0
 20 56  1  0  0  0  0
 21 57  1  0  0  0  0
 21 58  1  0  0  0  0
 22 24  1  0  0  0  0
 22 28  1  0  0  0  0
 22 59  1  0  0  0  0
 23 26  1  0  0  0  0
 23 60  1  0  0  0  0
 24 61  1  0  0  0  0
 24 62  1  0  0  0  0
 25 27  2  0  0  0  0
 26 27  1  0  0  0  0
 26 63  1  0  0  0  0
 26 64  1  0  0  0  0
 27 30  1  0  0  0  0
 28 33  1  0  0  0  0
 28 65  1  0  0  0  0
 28 66  1  0  0  0  0
 30 32  1  0  0  0  0
 30 34  2  0  0  0  0
 31 68  1  0  0  0  0
 31 69  1  0  0  0  0
 31 70  1  0  0  0  0
 32 35  2  0  0  0  0
 33 71  1  0  0  0  0
 33 72  1  0  0  0  0
 33 73  1  0  0  0  0
 34 36  1  0  0  0  0
 34 74  1  0  0  0  0
 35 37  1  0  0  0  0
 35 75  1  0  0  0  0
 36 37  2  0  0  0  0
 36 76  1  0  0  0  0
 37 77  1  0  0  0  0
 38 78  1  0  0  0  0
 38 79  1  0  0  0  0
 38 80  1  0  0  0  0
M  END
> <PUBCHEM_COMPOUND_CID>
137661609

> <PUBCHEM_CONFORMER_RMSD>
1

> <PUBCHEM_CONFORMER_DIVERSEORDER>
1
11
10
12
13
3
6
14
15
8
2
5
7
9
4

> <PUBCHEM_MMFF94_PARTIAL_CHARGES>
28
1 -0.43
17 0.66
19 0.46
2 -0.57
20 0.06
23 0.27
24 0.27
25 -0.33
26 0.18
27 -0.18
29 0.66
3 -0.43
31 0.27
32 -0.15
34 -0.15
35 -0.15
36 -0.15
37 -0.15
38 0.28
4 -0.57
5 -0.81
6 0.03
67 0.27
7 0.06
74 0.15
75 0.15
76 0.15
77 0.15

> <PUBCHEM_EFFECTIVE_ROTOR_COUNT>
8.6

> <PUBCHEM_PHARMACOPHORE_FEATURES>
13
1 2 acceptor
1 33 hydrophobe
1 4 acceptor
1 5 cation
1 6 cation
1 6 donor
5 6 25 27 30 32 rings
6 30 32 34 35 36 37 rings
6 5 18 20 22 23 24 rings
6 7 8 10 11 13 16 rings
6 7 8 9 11 12 15 rings
6 7 9 10 12 13 14 rings
6 8 9 10 14 15 16 rings

> <PUBCHEM_HEAVY_ATOM_COUNT>
38

> <PUBCHEM_ATOM_DEF_STEREO_COUNT>
5

> <PUBCHEM_ATOM_UDEF_STEREO_COUNT>
0

> <PUBCHEM_BOND_DEF_STEREO_COUNT>
0

> <PUBCHEM_BOND_UDEF_STEREO_COUNT>
0

> <PUBCHEM_ISOTOPIC_ATOM_COUNT>
0

> <PUBCHEM_COMPONENT_COUNT>
1

> <PUBCHEM_CACTVS_TAUTO_COUNT>
-1

> <PUBCHEM_CONFORMER_ID>
08348CA900000001

> <PUBCHEM_MMFF94_ENERGY>
121.9993

> <PUBCHEM_FEATURE_SELFOVERLAP>
78.602

> <PUBCHEM_SHAPE_FINGERPRINT>
10006869 2 18335124385580158259
10074138 170 18333739030888326529
10169797 241 17612901209668909297
10439779 11 15887430820866044761
10930396 42 17841122735502566456
11049842 53 18120402889815799756
11115154 58 17907274900540063135
11578080 2 17559698165230229179
11763715 3 17834679675195449790
12107183 9 18191860120740578466
12156800 1 16665481859038615482
12160290 23 18261116326095612149
12522641 24 17332542172736631873
12788726 201 18118418455573368100
13004483 165 18195525033192312093
131258 38 16524155324482429731
13692114 37 18340765919685996925
14028597 1 18113614616979980875
14705955 166 18268137829168895656
15230672 131 18266752277694668478
15361156 5 18192161597569773508
15420108 30 18120930612505337557
15439362 3 17838619950827721404
16114785 44 18059282262187474981
17974551 9 18337102385444088914
21033650 10 18264791976878059108
21703447 108 16389315710935368819
22889206 1 17029937901957802537
3027735 51 17533185735089964351
3380486 77 17314522624170068895
35225 105 18412830200450168312
376196 1 18197500619190144517
508180 173 17834919296196448575
508706 21 18272374174113017116
5265222 85 18194712361467252830
57527306 92 18117830217628337935
6004065 56 17545028764069893267
653340 110 18413108376717818221
9777508 108 18341055129371624669
9896288 288 18409731759429470738

> <PUBCHEM_SHAPE_MULTIPOLES>
748.58
10.14
6.92
2.37
10.5
0.3
0.47
9.8
2.83
-9.92
-0.65
0.98
-2.4
-0.09

> <PUBCHEM_SHAPE_SELFOVERLAP>
1643.874

> <PUBCHEM_SHAPE_VOLUME>
393.4

> <PUBCHEM_COORDINATE_TYPE>
2
5
10

$$$$