
 OpenBabel03292020533D

193193  0  0  1  0  0  0  0  0999 V2000
    7.3967    2.5286   -2.0652 C   0  0  0  0  0  0  0  0  0  0  0  0
    8.5395    1.5998   -2.4076 C   0  0  0  0  0  0  0  0  0  0  0  0
    8.4951    0.5063   -3.2061 C   0  0  0  0  0  0  0  0  0  0  0  0
    9.6282   -0.5406   -3.4343 C   0  0  0  0  0  0  0  0  0  0  0  0
   10.5464   -0.6226   -4.7798 C   0  0  1  0  0  0  0  0  0  0  0  0
   10.1726    0.5028   -5.7666 C   0  0  0  0  0  0  0  0  0  0  0  0
   12.1724   -1.3532   -4.7300 C   0  0  1  0  0  0  0  0  0  0  0  0
   11.9800   -2.4521   -3.8582 O   0  0  0  0  0  0  0  0  0  0  0  0
   13.8188   -0.6032   -4.5520 C   0  0  1  0  0  0  0  0  0  0  0  0
   15.5314   -1.2389   -4.2105 C   0  0  0  0  0  0  0  0  0  0  0  0
   15.7420   -2.4634   -4.2741 O   0  0  0  0  0  0  0  0  0  0  0  0
   16.7795   -0.3449   -4.0805 N   0  0  0  0  0  0  0  0  0  0  0  0
   18.5237   -0.5976   -3.9807 C   0  0  1  0  0  0  0  0  0  0  0  0
   18.9430   -1.4046   -2.7661 C   0  0  0  0  0  0  0  0  0  0  0  0
   20.2951   -2.1948   -2.7674 C   0  0  0  0  0  0  0  0  0  0  0  0
   19.6350    0.6338   -4.0805 C   0  0  0  0  0  0  0  0  0  0  0  0
   19.2719    1.6648   -4.6248 O   0  0  0  0  0  0  0  0  0  0  0  0
   21.0703    0.4545   -3.7898 N   0  0  0  0  0  0  0  0  0  0  0  0
   21.6523    0.1707   -2.4562 C   0  0  0  0  0  0  0  0  0  0  0  0
   22.0270    1.3042   -4.5164 C   0  0  0  0  0  0  0  0  0  0  0  0
   22.3796    1.0743   -5.9773 C   0  0  0  0  0  0  0  0  0  0  0  0
   22.6367    2.0475   -6.7023 O   0  0  0  0  0  0  0  0  0  0  0  0
   22.6628   -0.1455   -6.4947 N   0  0  0  0  0  0  0  0  0  0  0  0
   22.6515   -1.5223   -5.9788 C   0  0  1  0  0  0  0  0  0  0  0  0
   21.3378   -2.2218   -6.3581 C   0  0  0  0  0  0  0  0  0  0  0  0
   20.5510   -1.9551   -7.6761 C   0  0  0  0  0  0  0  0  0  0  0  0
   19.2025   -2.6921   -7.5880 C   0  0  0  0  0  0  0  0  0  0  0  0
   20.2813   -0.4987   -8.0462 C   0  0  0  0  0  0  0  0  0  0  0  0
   24.0764   -2.0971   -6.2977 C   0  0  0  0  0  0  0  0  0  0  0  0
   24.9890   -1.2882   -6.5619 O   0  0  0  0  0  0  0  0  0  0  0  0
   24.5658   -3.3442   -6.1174 N   0  0  0  0  0  0  0  0  0  0  0  0
   24.1888   -4.7441   -6.4596 C   0  0  2  0  0  0  0  0  0  0  0  0
   23.9521   -4.9762   -7.9833 C   0  0  0  0  0  0  0  0  0  0  0  0
   25.1358   -4.4914   -8.8417 C   0  0  0  0  0  0  0  0  0  0  0  0
   22.7026   -4.3121   -8.5141 C   0  0  0  0  0  0  0  0  0  0  0  0
   23.2433   -5.4725   -5.4251 C   0  0  0  0  0  0  0  0  0  0  0  0
   22.4056   -4.8218   -4.7902 O   0  0  0  0  0  0  0  0  0  0  0  0
   23.4222   -6.8455   -5.1716 N   0  0  0  0  0  0  0  0  0  0  0  0
   24.3007   -7.7079   -5.9677 C   0  0  0  0  0  0  0  0  0  0  0  0
   22.6838   -7.4894   -3.9870 C   0  0  2  0  0  0  0  0  0  0  0  0
   23.6957   -8.3383   -3.1508 C   0  0  0  0  0  0  0  0  0  0  0  0
   23.2791   -8.9310   -1.7853 C   0  0  0  0  0  0  0  0  0  0  0  0
   22.2654  -10.0737   -1.8762 C   0  0  0  0  0  0  0  0  0  0  0  0
   24.5205   -9.4664   -1.0567 C   0  0  0  0  0  0  0  0  0  0  0  0
   21.5146   -8.3800   -4.4836 C   0  0  0  0  0  0  0  0  0  0  0  0
   21.6379   -9.1084   -5.4769 O   0  0  0  0  0  0  0  0  0  0  0  0
   20.3455   -8.5398   -3.7889 N   0  0  0  0  0  0  0  0  0  0  0  0
   19.5455   -7.5408   -3.0577 C   0  0  1  0  0  0  0  0  0  0  0  0
   18.0865   -7.7081   -3.4457 C   0  0  0  0  0  0  0  0  0  0  0  0
   19.8527   -7.3321   -1.5442 C   0  0  0  0  0  0  0  0  0  0  0  0
   20.9833   -6.9154   -1.2424 O   0  0  0  0  0  0  0  0  0  0  0  0
   19.0642   -7.5296   -0.4563 N   0  0  0  0  0  0  0  0  0  0  0  0
   17.6857   -7.9412   -0.0695 C   0  0  2  0  0  0  0  0  0  0  0  0
   17.3622   -9.3325   -0.5911 C   0  0  0  0  0  0  0  0  0  0  0  0
   16.4848   -6.9264   -0.2241 C   0  0  0  0  0  0  0  0  0  0  0  0
   15.5962   -7.1270   -1.0565 O   0  0  0  0  0  0  0  0  0  0  0  0
   16.5017   -5.7522    0.5311 N   0  0  0  0  0  0  0  0  0  0  0  0
   16.6585   -5.7251    1.9754 C   0  0  0  0  0  0  0  0  0  0  0  0
   16.0819   -4.4800   -0.0886 C   0  0  1  0  0  0  0  0  0  0  0  0
   16.6137   -4.3465   -1.4736 C   0  0  0  0  0  0  0  0  0  0  0  0
   18.0784   -4.0855   -1.6062 C   0  0  0  0  0  0  0  0  0  0  0  0
   19.0855   -4.4083   -0.5162 C   0  0  0  0  0  0  0  0  0  0  0  0
   18.3718   -4.4715   -3.0728 C   0  0  0  0  0  0  0  0  0  0  0  0
   14.6654   -3.9044    0.0279 C   0  0  0  0  0  0  0  0  0  0  0  0
   14.3372   -3.4699    1.1444 O   0  0  0  0  0  0  0  0  0  0  0  0
   13.8334   -3.7408   -1.0857 N   0  0  0  0  0  0  0  0  0  0  0  0
   13.7866   -4.5562   -2.3091 C   0  0  0  0  0  0  0  0  0  0  0  0
   12.7625   -2.7276   -0.9250 C   0  0  1  0  0  0  0  0  0  0  0  0
   11.8008   -3.2541    0.1792 C   0  0  0  0  0  0  0  0  0  0  0  0
   10.3828   -3.7103   -0.2698 C   0  0  0  0  0  0  0  0  0  0  0  0
   10.3757   -4.9005   -1.2447 C   0  0  0  0  0  0  0  0  0  0  0  0
    9.5961   -4.1372    0.9801 C   0  0  0  0  0  0  0  0  0  0  0  0
   13.5235   -1.2421   -1.1332 C   0  0  0  0  0  0  0  0  0  0  0  0
   14.6504   -1.1916   -1.6429 O   0  0  0  0  0  0  0  0  0  0  0  0
   12.8582   -0.0276   -0.9627 N   0  0  0  0  0  0  0  0  0  0  0  0
   11.7643   -0.0038   -0.0076 C   0  0  0  0  0  0  0  0  0  0  0  0
   12.9968    1.1775   -1.8855 C   0  0  1  0  0  0  0  0  0  0  0  0
   14.0266    2.3848   -2.0590 C   0  0  0  0  0  0  0  0  0  0  0  0
   13.5292    3.7806   -1.6180 C   0  0  0  0  0  0  0  0  0  0  0  0
   15.5199    2.1651   -2.1851 C   0  0  0  0  0  0  0  0  0  0  0  0
   12.5135    1.0668   -3.3229 C   0  0  0  0  0  0  0  0  0  0  0  0
   11.4382    1.6207   -3.5665 O   0  0  0  0  0  0  0  0  0  0  0  0
   13.4792    0.8130   -4.3400 N   0  0  0  0  0  0  0  0  0  0  0  0
   13.2574    1.5252   -5.5753 C   0  0  0  0  0  0  0  0  0  0  0  0
    7.7052    3.5781   -2.1612 H   0  0  0  0  0  0  0  0  0  0  0  0
    7.0899    2.3875   -1.0202 H   0  0  0  0  0  0  0  0  0  0  0  0
    6.5129    2.3880   -2.6956 H   0  0  0  0  0  0  0  0  0  0  0  0
    9.4819    1.8782   -1.9426 H   0  0  0  0  0  0  0  0  0  0  0  0
    7.5191    0.2582   -3.6302 H   0  0  0  0  0  0  0  0  0  0  0  0
    9.0633   -1.4887   -3.4098 H   0  0  0  0  0  0  0  0  0  0  0  0
   10.2569   -0.5851   -2.5459 H   0  0  0  0  0  0  0  0  0  0  0  0
   10.0306   -1.4668   -5.2742 H   0  0  0  0  0  0  0  0  0  0  0  0
   10.4630    1.5101   -5.4695 H   0  0  0  0  0  0  0  0  0  0  0  0
    9.0780    0.5596   -5.8697 H   0  0  0  0  0  0  0  0  0  0  0  0
   10.5620    0.3094   -6.7661 H   0  0  0  0  0  0  0  0  0  0  0  0
   12.2335   -1.7904   -5.7356 H   0  0  0  0  0  0  0  0  0  0  0  0
   11.0947   -2.8303   -4.0288 H   0  0  0  0  0  0  0  0  0  0  0  0
   14.0402   -0.6202   -5.6549 H   0  0  0  0  0  0  0  0  0  0  0  0
   16.5850    0.6308   -4.2452 H   0  0  0  0  0  0  0  0  0  0  0  0
   18.6787   -1.2137   -4.8695 H   0  0  0  0  0  0  0  0  0  0  0  0
   18.1025   -2.0571   -2.7519 H   0  0  0  0  0  0  0  0  0  0  0  0
   18.9002   -0.8123   -1.8461 H   0  0  0  0  0  0  0  0  0  0  0  0
   20.9715   -1.9528   -3.5792 H   0  0  0  0  0  0  0  0  0  0  0  0
   20.2559   -3.2640   -2.8352 H   0  0  0  0  0  0  0  0  0  0  0  0
   20.8209   -2.0877   -1.8078 H   0  0  0  0  0  0  0  0  0  0  0  0
   22.3696   -0.6460   -2.5568 H   0  0  0  0  0  0  0  0  0  0  0  0
   20.9167   -0.0212   -1.6750 H   0  0  0  0  0  0  0  0  0  0  0  0
   22.2513    1.0216   -2.0908 H   0  0  0  0  0  0  0  0  0  0  0  0
   23.0105    1.1976   -4.0369 H   0  0  0  0  0  0  0  0  0  0  0  0
   21.7336    2.3515   -4.3681 H   0  0  0  0  0  0  0  0  0  0  0  0
   23.0959   -0.0445   -7.4070 H   0  0  0  0  0  0  0  0  0  0  0  0
   22.6772   -1.4534   -4.8855 H   0  0  0  0  0  0  0  0  0  0  0  0
   21.4625   -3.2972   -6.2489 H   0  0  0  0  0  0  0  0  0  0  0  0
   20.6306   -1.9475   -5.5741 H   0  0  0  0  0  0  0  0  0  0  0  0
   21.0775   -2.3809   -8.5273 H   0  0  0  0  0  0  0  0  0  0  0  0
   18.5634   -2.2600   -6.8120 H   0  0  0  0  0  0  0  0  0  0  0  0
   19.3448   -3.7527   -7.3570 H   0  0  0  0  0  0  0  0  0  0  0  0
   18.6591   -2.6262   -8.5361 H   0  0  0  0  0  0  0  0  0  0  0  0
   19.9102    0.0771   -7.1946 H   0  0  0  0  0  0  0  0  0  0  0  0
   19.5372   -0.4328   -8.8474 H   0  0  0  0  0  0  0  0  0  0  0  0
   21.1798   -0.0225   -8.4481 H   0  0  0  0  0  0  0  0  0  0  0  0
   25.5681   -3.2276   -6.2310 H   0  0  0  0  0  0  0  0  0  0  0  0
   25.1542   -5.2333   -6.2614 H   0  0  0  0  0  0  0  0  0  0  0  0
   23.8206   -6.0436   -8.1790 H   0  0  0  0  0  0  0  0  0  0  0  0
   25.3617   -3.4337   -8.6689 H   0  0  0  0  0  0  0  0  0  0  0  0
   24.9095   -4.5934   -9.9102 H   0  0  0  0  0  0  0  0  0  0  0  0
   26.0393   -5.0727   -8.6364 H   0  0  0  0  0  0  0  0  0  0  0  0
   22.8411   -3.2318   -8.4880 H   0  0  0  0  0  0  0  0  0  0  0  0
   21.8227   -4.6150   -7.9432 H   0  0  0  0  0  0  0  0  0  0  0  0
   22.5180   -4.5815   -9.5600 H   0  0  0  0  0  0  0  0  0  0  0  0
   24.7620   -7.2022   -6.8113 H   0  0  0  0  0  0  0  0  0  0  0  0
   23.7402   -8.5523   -6.3671 H   0  0  0  0  0  0  0  0  0  0  0  0
   25.1218   -8.0669   -5.3441 H   0  0  0  0  0  0  0  0  0  0  0  0
   22.2853   -6.6867   -3.3630 H   0  0  0  0  0  0  0  0  0  0  0  0
   24.0554   -9.1750   -3.7644 H   0  0  0  0  0  0  0  0  0  0  0  0
   24.5701   -7.6956   -2.9734 H   0  0  0  0  0  0  0  0  0  0  0  0
   22.8838   -8.1363   -1.1521 H   0  0  0  0  0  0  0  0  0  0  0  0
   22.4440  -10.7050   -2.7521 H   0  0  0  0  0  0  0  0  0  0  0  0
   21.2440   -9.7001   -1.9192 H   0  0  0  0  0  0  0  0  0  0  0  0
   22.2957  -10.7143   -0.9890 H   0  0  0  0  0  0  0  0  0  0  0  0
   24.9897  -10.2795   -1.6165 H   0  0  0  0  0  0  0  0  0  0  0  0
   24.2469   -9.8493   -0.0654 H   0  0  0  0  0  0  0  0  0  0  0  0
   25.2599   -8.6733   -0.9065 H   0  0  0  0  0  0  0  0  0  0  0  0
   19.7877   -9.2293   -4.2787 H   0  0  0  0  0  0  0  0  0  0  0  0
   19.8811   -6.6027   -3.5086 H   0  0  0  0  0  0  0  0  0  0  0  0
   17.7822   -8.7561   -3.4824 H   0  0  0  0  0  0  0  0  0  0  0  0
   17.9234   -7.3106   -4.4562 H   0  0  0  0  0  0  0  0  0  0  0  0
   17.4149   -7.1866   -2.7709 H   0  0  0  0  0  0  0  0  0  0  0  0
   19.6219   -7.2677    0.3505 H   0  0  0  0  0  0  0  0  0  0  0  0
   17.7743   -8.0643    1.0162 H   0  0  0  0  0  0  0  0  0  0  0  0
   17.8460   -9.5437   -1.5436 H   0  0  0  0  0  0  0  0  0  0  0  0
   16.2871   -9.4955   -0.6987 H   0  0  0  0  0  0  0  0  0  0  0  0
   17.7432  -10.0806    0.1116 H   0  0  0  0  0  0  0  0  0  0  0  0
   17.0155   -6.6752    2.3683 H   0  0  0  0  0  0  0  0  0  0  0  0
   15.6829   -5.5102    2.4233 H   0  0  0  0  0  0  0  0  0  0  0  0
   17.3575   -4.9285    2.2513 H   0  0  0  0  0  0  0  0  0  0  0  0
   16.6387   -3.7157    0.4810 H   0  0  0  0  0  0  0  0  0  0  0  0
   16.1373   -3.4983   -1.9805 H   0  0  0  0  0  0  0  0  0  0  0  0
   16.3697   -5.2396   -2.0395 H   0  0  0  0  0  0  0  0  0  0  0  0
   18.0731   -3.0231   -1.4153 H   0  0  0  0  0  0  0  0  0  0  0  0
   18.8852   -5.3183    0.0184 H   0  0  0  0  0  0  0  0  0  0  0  0
   19.0507   -3.6274    0.2595 H   0  0  0  0  0  0  0  0  0  0  0  0
   20.1114   -4.4084   -0.8886 H   0  0  0  0  0  0  0  0  0  0  0  0
   17.7593   -5.2943   -3.4239 H   0  0  0  0  0  0  0  0  0  0  0  0
   19.3976   -4.7591   -3.2608 H   0  0  0  0  0  0  0  0  0  0  0  0
   18.0965   -3.6880   -3.7860 H   0  0  0  0  0  0  0  0  0  0  0  0
   14.7382   -4.7630   -2.7769 H   0  0  0  0  0  0  0  0  0  0  0  0
   13.2394   -4.0431   -3.0920 H   0  0  0  0  0  0  0  0  0  0  0  0
   13.2956   -5.5054   -2.0940 H   0  0  0  0  0  0  0  0  0  0  0  0
   12.1423   -2.7595   -1.8102 H   0  0  0  0  0  0  0  0  0  0  0  0
   11.7276   -2.5609    1.0139 H   0  0  0  0  0  0  0  0  0  0  0  0
   12.2109   -4.1778    0.6148 H   0  0  0  0  0  0  0  0  0  0  0  0
    9.8681   -2.8670   -0.7417 H   0  0  0  0  0  0  0  0  0  0  0  0
   10.8678   -5.7811   -0.8140 H   0  0  0  0  0  0  0  0  0  0  0  0
   10.8658   -4.6656   -2.1918 H   0  0  0  0  0  0  0  0  0  0  0  0
    9.3450   -5.1947   -1.4825 H   0  0  0  0  0  0  0  0  0  0  0  0
   10.0420   -5.0280    1.4413 H   0  0  0  0  0  0  0  0  0  0  0  0
    8.5579   -4.3786    0.7303 H   0  0  0  0  0  0  0  0  0  0  0  0
    9.5893   -3.3409    1.7300 H   0  0  0  0  0  0  0  0  0  0  0  0
   12.0129   -0.6305    0.8478 H   0  0  0  0  0  0  0  0  0  0  0  0
   10.8536   -0.3707   -0.4833 H   0  0  0  0  0  0  0  0  0  0  0  0
   11.6084    1.0034    0.3853 H   0  0  0  0  0  0  0  0  0  0  0  0
   12.1617    1.7466   -1.4533 H   0  0  0  0  0  0  0  0  0  0  0  0
   13.8849    2.6561   -3.1183 H   0  0  0  0  0  0  0  0  0  0  0  0
   14.1611    4.2430   -0.8637 H   0  0  0  0  0  0  0  0  0  0  0  0
   12.4871    3.7701   -1.2831 H   0  0  0  0  0  0  0  0  0  0  0  0
   13.5242    4.4597   -2.4918 H   0  0  0  0  0  0  0  0  0  0  0  0
   16.0853    3.0406   -1.8560 H   0  0  0  0  0  0  0  0  0  0  0  0
   15.7685    2.0661   -3.2517 H   0  0  0  0  0  0  0  0  0  0  0  0
   15.8687    1.2697   -1.6772 H   0  0  0  0  0  0  0  0  0  0  0  0
   14.2212    1.6669   -6.0649 H   0  0  0  0  0  0  0  0  0  0  0  0
   12.7792    2.4901   -5.3984 H   0  0  0  0  0  0  0  0  0  0  0  0
   12.6210    0.9395   -6.2456 H   0  0  0  0  0  0  0  0  0  0  0  0
  1  2  1  0  0  0  0
  1 85  1  0  0  0  0
  1 86  1  0  0  0  0
  1 87  1  0  0  0  0
  2  3  2  0  0  0  0
  2 88  1  0  0  0  0
  3  4  1  0  0  0  0
  3 89  1  0  0  0  0
  4  5  1  0  0  0  0
  4 90  1  0  0  0  0
  4 91  1  0  0  0  0
  5  6  1  0  0  0  0
  5  7  1  0  0  0  0
  5 92  1  6  0  0  0
  6 93  1  0  0  0  0
  6 94  1  0  0  0  0
  6 95  1  0  0  0  0
  7  8  1  0  0  0  0
  7 96  1  1  0  0  0
  8 97  1  0  0  0  0
  9 10  1  0  0  0  0
  9 83  1  0  0  0  0
  9  7  1  0  0  0  0
  9 98  1  1  0  0  0
 10 11  2  0  0  0  0
 10 12  1  0  0  0  0
 12 13  1  0  0  0  0
 12 99  1  0  0  0  0
 13 14  1  0  0  0  0
 13 16  1  0  0  0  0
 13100  1  1  0  0  0
 14 15  1  0  0  0  0
 14101  1  0  0  0  0
 14102  1  0  0  0  0
 15103  1  0  0  0  0
 15104  1  0  0  0  0
 15105  1  0  0  0  0
 16 17  2  0  0  0  0
 16 18  1  0  0  0  0
 18 19  1  0  0  0  0
 18 20  1  0  0  0  0
 19106  1  0  0  0  0
 19107  1  0  0  0  0
 19108  1  0  0  0  0
 20 21  1  0  0  0  0
 20109  1  0  0  0  0
 20110  1  0  0  0  0
 21 22  2  0  0  0  0
 21 23  1  0  0  0  0
 23 24  1  0  0  0  0
 23111  1  0  0  0  0
 24 25  1  0  0  0  0
 24 29  1  0  0  0  0
 24112  1  1  0  0  0
 25 26  1  0  0  0  0
 25113  1  0  0  0  0
 25114  1  0  0  0  0
 26 27  1  0  0  0  0
 26 28  1  0  0  0  0
 26115  1  0  0  0  0
 27116  1  0  0  0  0
 27117  1  0  0  0  0
 27118  1  0  0  0  0
 28119  1  0  0  0  0
 28120  1  0  0  0  0
 28121  1  0  0  0  0
 29 30  2  0  0  0  0
 29 31  1  0  0  0  0
 31 32  1  0  0  0  0
 31122  1  0  0  0  0
 32 36  1  0  0  0  0
 32 33  1  0  0  0  0
 32123  1  1  0  0  0
 33 34  1  0  0  0  0
 33 35  1  0  0  0  0
 33124  1  0  0  0  0
 34125  1  0  0  0  0
 34126  1  0  0  0  0
 34127  1  0  0  0  0
 35128  1  0  0  0  0
 35129  1  0  0  0  0
 35130  1  0  0  0  0
 36 37  2  0  0  0  0
 36 38  1  0  0  0  0
 38 39  1  0  0  0  0
 38 40  1  0  0  0  0
 39131  1  0  0  0  0
 39132  1  0  0  0  0
 39133  1  0  0  0  0
 40 45  1  0  0  0  0
 40 41  1  0  0  0  0
 40134  1  1  0  0  0
 41 42  1  0  0  0  0
 41135  1  0  0  0  0
 41136  1  0  0  0  0
 42 43  1  0  0  0  0
 42 44  1  0  0  0  0
 42137  1  0  0  0  0
 43138  1  0  0  0  0
 43139  1  0  0  0  0
 43140  1  0  0  0  0
 44141  1  0  0  0  0
 44142  1  0  0  0  0
 44143  1  0  0  0  0
 45 46  2  0  0  0  0
 45 47  1  0  0  0  0
 47 48  1  0  0  0  0
 47144  1  0  0  0  0
 48 49  1  0  0  0  0
 48 50  1  0  0  0  0
 48145  1  6  0  0  0
 49146  1  0  0  0  0
 49147  1  0  0  0  0
 49148  1  0  0  0  0
 50 51  2  0  0  0  0
 50 52  1  0  0  0  0
 52 53  1  0  0  0  0
 52149  1  0  0  0  0
 53 55  1  0  0  0  0
 53 54  1  0  0  0  0
 53150  1  1  0  0  0
 54151  1  0  0  0  0
 54152  1  0  0  0  0
 54153  1  0  0  0  0
 55 56  2  0  0  0  0
 55 57  1  0  0  0  0
 57 58  1  0  0  0  0
 57 59  1  0  0  0  0
 58154  1  0  0  0  0
 58155  1  0  0  0  0
 58156  1  0  0  0  0
 59 60  1  0  0  0  0
 59 64  1  0  0  0  0
 59157  1  1  0  0  0
 60 61  1  0  0  0  0
 60158  1  0  0  0  0
 60159  1  0  0  0  0
 61 62  1  0  0  0  0
 61 63  1  0  0  0  0
 61160  1  0  0  0  0
 62161  1  0  0  0  0
 62162  1  0  0  0  0
 62163  1  0  0  0  0
 63164  1  0  0  0  0
 63165  1  0  0  0  0
 63166  1  0  0  0  0
 64 65  2  0  0  0  0
 64 66  1  0  0  0  0
 66 67  1  0  0  0  0
 66 68  1  0  0  0  0
 67167  1  0  0  0  0
 67168  1  0  0  0  0
 67169  1  0  0  0  0
 68 69  1  0  0  0  0
 68 73  1  0  0  0  0
 68170  1  6  0  0  0
 69 70  1  0  0  0  0
 69171  1  0  0  0  0
 69172  1  0  0  0  0
 70 71  1  0  0  0  0
 70 72  1  0  0  0  0
 70173  1  0  0  0  0
 71174  1  0  0  0  0
 71175  1  0  0  0  0
 71176  1  0  0  0  0
 72177  1  0  0  0  0
 72178  1  0  0  0  0
 72179  1  0  0  0  0
 73 74  2  0  0  0  0
 73 75  1  0  0  0  0
 75 76  1  0  0  0  0
 75 77  1  0  0  0  0
 76180  1  0  0  0  0
 76181  1  0  0  0  0
 76182  1  0  0  0  0
 77 78  1  0  0  0  0
 77 81  1  0  0  0  0
 77183  1  1  0  0  0
 78 79  1  0  0  0  0
 78 80  1  0  0  0  0
 78184  1  0  0  0  0
 79185  1  0  0  0  0
 79186  1  0  0  0  0
 79187  1  0  0  0  0
 80188  1  0  0  0  0
 80189  1  0  0  0  0
 80190  1  0  0  0  0
 81 82  2  0  0  0  0
 81 83  1  0  0  0  0
 83 84  1  0  0  0  0
 84191  1  0  0  0  0
 84192  1  0  0  0  0
 84193  1  0  0  0  0
M  END
>  <Energy>
763.296

$$$$