44451913
  -OEChem-03242010103D

 67 70  0     1  0  0  0  0  0999 V2000
    7.0624   -2.2961   -1.5192 O   0  0  0  0  0  0  0  0  0  0  0  0
    6.5326   -3.4665    0.9433 O   0  0  0  0  0  0  0  0  0  0  0  0
   -4.2505    2.1673    0.2765 O   0  0  0  0  0  0  0  0  0  0  0  0
   -8.1942   -0.7289    1.5509 O   0  0  0  0  0  0  0  0  0  0  0  0
   -8.1086   -2.7853   -0.3172 O   0  0  0  0  0  0  0  0  0  0  0  0
    3.3171    2.0710    0.5649 N   0  0  2  0  0  0  0  0  0  0  0  0
   -2.7285    0.6017   -0.5959 N   0  0  0  0  0  0  0  0  0  0  0  0
    3.6673    1.8940    1.9796 C   0  0  0  0  0  0  0  0  0  0  0  0
    4.4432    1.6623   -0.2933 C   0  0  0  0  0  0  0  0  0  0  0  0
    3.8469    0.4041    2.2882 C   0  0  0  0  0  0  0  0  0  0  0  0
    4.9723    0.2838    0.0307 C   0  0  0  0  0  0  0  0  0  0  0  0
    4.7237   -0.2994    1.2852 C   0  0  0  0  0  0  0  0  0  0  0  0
    2.9458    3.4589    0.2915 C   0  0  0  0  0  0  0  0  0  0  0  0
    2.1179    3.5622   -0.9899 C   0  0  0  0  0  0  0  0  0  0  0  0
    5.7713   -0.3944   -0.8999 C   0  0  0  0  0  0  0  0  0  0  0  0
    5.2458   -1.5662    1.5764 C   0  0  0  0  0  0  0  0  0  0  0  0
    6.2945   -1.6512   -0.5970 C   0  0  0  0  0  0  0  0  0  0  0  0
    6.0301   -2.2375    0.6388 C   0  0  0  0  0  0  0  0  0  0  0  0
    0.8345    2.7776   -0.8845 C   0  0  0  0  0  0  0  0  0  0  0  0
    0.8006    1.4396   -1.2773 C   0  0  0  0  0  0  0  0  0  0  0  0
   -0.3192    3.3902   -0.3953 C   0  0  0  0  0  0  0  0  0  0  0  0
   -0.3869    0.7143   -1.1812 C   0  0  0  0  0  0  0  0  0  0  0  0
   -1.5068    2.6650   -0.2993 C   0  0  0  0  0  0  0  0  0  0  0  0
   -1.5406    1.3271   -0.6922 C   0  0  0  0  0  0  0  0  0  0  0  0
    7.2849   -1.6269   -2.7591 C   0  0  0  0  0  0  0  0  0  0  0  0
    7.8135   -3.5057    1.5696 C   0  0  0  0  0  0  0  0  0  0  0  0
   -3.9749    1.0449   -0.1334 C   0  0  0  0  0  0  0  0  0  0  0  0
   -5.0665    0.0370   -0.1790 C   0  0  0  0  0  0  0  0  0  0  0  0
   -6.1336    0.1228    0.7153 C   0  0  0  0  0  0  0  0  0  0  0  0
   -5.0235   -0.9951   -1.1164 C   0  0  0  0  0  0  0  0  0  0  0  0
   -7.1577   -0.8230    0.6721 C   0  0  0  0  0  0  0  0  0  0  0  0
   -7.1147   -1.8550   -0.2654 C   0  0  0  0  0  0  0  0  0  0  0  0
   -6.0476   -1.9410   -1.1596 C   0  0  0  0  0  0  0  0  0  0  0  0
   -8.1620    0.3557    2.4768 C   0  0  0  0  0  0  0  0  0  0  0  0
   -7.9886   -3.8072   -1.3050 C   0  0  0  0  0  0  0  0  0  0  0  0
    2.8704    2.2757    2.6298 H   0  0  0  0  0  0  0  0  0  0  0  0
    4.5827    2.4484    2.2269 H   0  0  0  0  0  0  0  0  0  0  0  0
    5.2807    2.3670   -0.2013 H   0  0  0  0  0  0  0  0  0  0  0  0
    4.1213    1.6560   -1.3404 H   0  0  0  0  0  0  0  0  0  0  0  0
    2.8666   -0.0897    2.2884 H   0  0  0  0  0  0  0  0  0  0  0  0
    4.2740    0.3007    3.2927 H   0  0  0  0  0  0  0  0  0  0  0  0
    2.3321    3.8524    1.1134 H   0  0  0  0  0  0  0  0  0  0  0  0
    3.8265    4.1108    0.2283 H   0  0  0  0  0  0  0  0  0  0  0  0
    2.6840    3.2411   -1.8721 H   0  0  0  0  0  0  0  0  0  0  0  0
    1.8793    4.6178   -1.1746 H   0  0  0  0  0  0  0  0  0  0  0  0
    5.9484    0.1140   -1.8420 H   0  0  0  0  0  0  0  0  0  0  0  0
    5.0383   -2.0305    2.5378 H   0  0  0  0  0  0  0  0  0  0  0  0
    1.6874    0.9497   -1.6696 H   0  0  0  0  0  0  0  0  0  0  0  0
   -0.3038    4.4316   -0.0846 H   0  0  0  0  0  0  0  0  0  0  0  0
   -0.3989   -0.3271   -1.4931 H   0  0  0  0  0  0  0  0  0  0  0  0
   -2.3557    3.2095    0.0893 H   0  0  0  0  0  0  0  0  0  0  0  0
    7.9130   -2.2833   -3.3704 H   0  0  0  0  0  0  0  0  0  0  0  0
    7.8422   -0.6943   -2.6202 H   0  0  0  0  0  0  0  0  0  0  0  0
    6.3506   -1.4779   -3.3113 H   0  0  0  0  0  0  0  0  0  0  0  0
    8.0793   -4.5524    1.7409 H   0  0  0  0  0  0  0  0  0  0  0  0
    7.7842   -2.9896    2.5345 H   0  0  0  0  0  0  0  0  0  0  0  0
    8.5726   -3.0529    0.9240 H   0  0  0  0  0  0  0  0  0  0  0  0
   -2.6382   -0.3727   -0.8690 H   0  0  0  0  0  0  0  0  0  0  0  0
   -6.1160    0.9390    1.4294 H   0  0  0  0  0  0  0  0  0  0  0  0
   -4.2323   -1.0793   -1.8553 H   0  0  0  0  0  0  0  0  0  0  0  0
   -5.9526   -2.7097   -1.9189 H   0  0  0  0  0  0  0  0  0  0  0  0
   -9.0621    0.2768    3.0956 H   0  0  0  0  0  0  0  0  0  0  0  0
   -8.2122    1.3241    1.9673 H   0  0  0  0  0  0  0  0  0  0  0  0
   -7.3046    0.2831    3.1547 H   0  0  0  0  0  0  0  0  0  0  0  0
   -8.8626   -4.4589   -1.2022 H   0  0  0  0  0  0  0  0  0  0  0  0
   -7.1050   -4.4317   -1.1347 H   0  0  0  0  0  0  0  0  0  0  0  0
   -8.0183   -3.3938   -2.3190 H   0  0  0  0  0  0  0  0  0  0  0  0
  1 17  1  0  0  0  0
  1 25  1  0  0  0  0
  2 18  1  0  0  0  0
  2 26  1  0  0  0  0
  3 27  2  0  0  0  0
  4 31  1  0  0  0  0
  4 34  1  0  0  0  0
  5 32  1  0  0  0  0
  5 35  1  0  0  0  0
  6  8  1  0  0  0  0
  6  9  1  0  0  0  0
  6 13  1  0  0  0  0
  7 24  1  0  0  0  0
  7 27  1  0  0  0  0
  7 58  1  0  0  0  0
  8 10  1  0  0  0  0
  8 36  1  0  0  0  0
  8 37  1  0  0  0  0
  9 11  1  0  0  0  0
  9 38  1  0  0  0  0
  9 39  1  0  0  0  0
 10 12  1  0  0  0  0
 10 40  1  0  0  0  0
 10 41  1  0  0  0  0
 11 12  1  0  0  0  0
 11 15  2  0  0  0  0
 12 16  2  0  0  0  0
 13 14  1  0  0  0  0
 13 42  1  0  0  0  0
 13 43  1  0  0  0  0
 14 19  1  0  0  0  0
 14 44  1  0  0  0  0
 14 45  1  0  0  0  0
 15 17  1  0  0  0  0
 15 46  1  0  0  0  0
 16 18  1  0  0  0  0
 16 47  1  0  0  0  0
 17 18  2  0  0  0  0
 19 20  2  0  0  0  0
 19 21  1  0  0  0  0
 20 22  1  0  0  0  0
 20 48  1  0  0  0  0
 21 23  2  0  0  0  0
 21 49  1  0  0  0  0
 22 24  2  0  0  0  0
 22 50  1  0  0  0  0
 23 24  1  0  0  0  0
 23 51  1  0  0  0  0
 25 52  1  0  0  0  0
 25 53  1  0  0  0  0
 25 54  1  0  0  0  0
 26 55  1  0  0  0  0
 26 56  1  0  0  0  0
 26 57  1  0  0  0  0
 27 28  1  0  0  0  0
 28 29  2  0  0  0  0
 28 30  1  0  0  0  0
 29 31  1  0  0  0  0
 29 59  1  0  0  0  0
 30 33  2  0  0  0  0
 30 60  1  0  0  0  0
 31 32  2  0  0  0  0
 32 33  1  0  0  0  0
 33 61  1  0  0  0  0
 34 62  1  0  0  0  0
 34 63  1  0  0  0  0
 34 64  1  0  0  0  0
 35 65  1  0  0  0  0
 35 66  1  0  0  0  0
 35 67  1  0  0  0  0
M  END
> <PUBCHEM_COMPOUND_CID>
44451913

> <PUBCHEM_CONFORMER_RMSD>
1

> <PUBCHEM_CONFORMER_DIVERSEORDER>
23
45
174
114
122
91
12
158
117
157
1
162
61
136
49
94
72
18
118
121
146
16
75
69
151
119
44
163
171
132
83
123
100
15
86
25
22
113
95
104
29
48
74
109
153
161
46
92
164
103
56
66
138
101
160
20
54
24
172
38
130
13
127
120
33
87
47
9
105
59
131
35
102
134
98
65
80
52
141
37
4
152
148
26
147
5
137
63
129
2
19
28
55
97
110
57
11
42
73
139
156
10
145
96
32
17
3
133
34
6
79
60
27
89
62
93
53
88
31
67
135
7
50
142
155
116
21
106
107
85
166
144
51
30
108
126
90
170
8
159
128
77
76
68
58
82
70
84
165
78
125
39
149
150
14
143
169
124
154
140
167
173
168
41
71
111
112
36
81
99
40
64
43
115

> <PUBCHEM_MMFF94_PARTIAL_CHARGES>
45
1 -0.36
10 0.14
11 -0.14
12 -0.14
13 0.27
14 0.14
15 -0.15
16 -0.15
17 0.08
18 0.08
19 -0.14
2 -0.36
20 -0.15
21 -0.15
22 -0.15
23 -0.15
24 0.12
25 0.28
26 0.28
27 0.54
28 0.09
29 -0.15
3 -0.57
30 -0.15
31 0.08
32 0.08
33 -0.15
34 0.28
35 0.28
4 -0.36
46 0.15
47 0.15
48 0.15
49 0.15
5 -0.36
50 0.15
51 0.15
58 0.37
59 0.15
6 -0.81
60 0.15
61 0.15
7 -0.55
8 0.27
9 0.41

> <PUBCHEM_EFFECTIVE_ROTOR_COUNT>
10.8

> <PUBCHEM_PHARMACOPHORE_FEATURES>
11
1 1 acceptor
1 2 acceptor
1 3 acceptor
1 4 acceptor
1 5 acceptor
1 6 cation
1 7 donor
6 11 12 15 16 17 18 rings
6 19 20 21 22 23 24 rings
6 28 29 30 31 32 33 rings
6 6 8 9 10 11 12 rings

> <PUBCHEM_HEAVY_ATOM_COUNT>
35

> <PUBCHEM_ATOM_DEF_STEREO_COUNT>
0

> <PUBCHEM_ATOM_UDEF_STEREO_COUNT>
0

> <PUBCHEM_BOND_DEF_STEREO_COUNT>
0

> <PUBCHEM_BOND_UDEF_STEREO_COUNT>
0

> <PUBCHEM_ISOTOPIC_ATOM_COUNT>
0

> <PUBCHEM_COMPONENT_COUNT>
1

> <PUBCHEM_CACTVS_TAUTO_COUNT>
2

> <PUBCHEM_CONFORMER_ID>
02A6484900000017

> <PUBCHEM_MMFF94_ENERGY>
141.209

> <PUBCHEM_FEATURE_SELFOVERLAP>
55.854

> <PUBCHEM_SHAPE_FINGERPRINT>
10533779 1 10447631479976945578
10556698 54 13045939114548194038
10673678 19 9006789717068022677
10677351 27 17677343839138035363
11135609 127 10809612749322414332
11421887 103 9943225018739798290
117089 54 18263645061570279994
11991303 11 16881299396113520397
12124843 1 17458908133161061894
12422481 6 17704066296155568420
12522641 68 16815200455335207804
12661589 4 18412546535504237124
12728208 25 18202001062475644235
13165053 371 9366251890239153060
13383661 66 17773042952203850686
13533116 47 18335700610787238305
1361 4 18192711365962679351
13782708 43 18342449335616442200
14040222 275 18336277794409419358
15001296 14 17897715685932630609
15467298 65 17836919375781197239
15684393 108 17822298993561697430
16096371 109 13038925307999023116
16994733 274 10737286857208949695
19053607 189 8862648106859276918
19841028 212 18411134753266760848
20165401 70 18339636849613936887
20775438 99 18042398213777206656
21130935 74 18200034087850349377
21585481 151 18202008702621363119
22002106 203 18262222370949459130
23522609 53 18119843272921445756
23569914 2 13770504139802571198
23569943 247 18335419059117964011
24893989 43 18266173023349370166
24983565 74 18196080274002457335
25269216 80 15213305210471081669
255183 451 18334862731535043628
2748736 6 10015574004647818792
3504750 166 18342458154408231861
3862424 121 17531540840151309139
3918712 181 8646775469265162047
393628 194 10663230368338806354
397638 26 16128375956846227479
406291 66 18408601457197239991
4330586 98 17458925755839112810
4408954 64 17560811987535957688
474113 269 18269825558780692887
50742298 180 15482674597612821467
5265222 85 11314027985843327737
5372103 7 14346376657473451142
57359948 33 12613295595501100548
60111433 81 13599808472355779948
6712543 237 16845567621778200111
70634741 139 11455883656360600909
9555976 147 17846504695272375657
9831232 110 18338794524959482638
9849439 229 10735868500548162452

> <PUBCHEM_SHAPE_MULTIPOLES>
680.97
28.6
4.74
2.01
29.23
0.32
0.4
34.7
4.17
-3.44
-0.67
-1.65
0.71
-2.14

> <PUBCHEM_SHAPE_SELFOVERLAP>
1462.08

> <PUBCHEM_SHAPE_VOLUME>
376.5

> <PUBCHEM_COORDINATE_TYPE>
2
5
10

$$$$