44451832
  -OEChem-03242010103D

 59 62  0     1  0  0  0  0  0999 V2000
  -10.5651   -2.5340   -0.1113 Br  0  0  0  0  0  0  0  0  0  0  0  0
    7.7060   -2.5620    0.1151 O   0  0  0  0  0  0  0  0  0  0  0  0
    9.1785   -0.2416   -0.2894 O   0  0  0  0  0  0  0  0  0  0  0  0
   -5.2253   -1.5744   -0.6166 O   0  0  0  0  0  0  0  0  0  0  0  0
    2.9517    1.2859   -0.0780 N   0  0  2  0  0  0  0  0  0  0  0  0
   -4.8473    0.5487    0.3208 N   0  0  0  0  0  0  0  0  0  0  0  0
    3.5782    2.2375   -1.0038 C   0  0  0  0  0  0  0  0  0  0  0  0
    3.5068   -0.0638   -0.2825 C   0  0  0  0  0  0  0  0  0  0  0  0
    5.0643    2.3917   -0.6654 C   0  0  0  0  0  0  0  0  0  0  0  0
    5.0178   -0.0997   -0.2557 C   0  0  0  0  0  0  0  0  0  0  0  0
    5.7635    1.0696   -0.4840 C   0  0  0  0  0  0  0  0  0  0  0  0
    1.4999    1.2710   -0.2529 C   0  0  0  0  0  0  0  0  0  0  0  0
    0.8047    0.7044    0.9853 C   0  0  0  0  0  0  0  0  0  0  0  0
    5.6844   -1.3178   -0.0665 C   0  0  0  0  0  0  0  0  0  0  0  0
    7.1631    1.0104   -0.4827 C   0  0  0  0  0  0  0  0  0  0  0  0
    7.0783   -1.3683   -0.0766 C   0  0  0  0  0  0  0  0  0  0  0  0
    7.8167   -0.2051   -0.2822 C   0  0  0  0  0  0  0  0  0  0  0  0
   -0.6925    0.6628    0.8094 C   0  0  0  0  0  0  0  0  0  0  0  0
   -1.4699    1.7568    1.1897 C   0  0  0  0  0  0  0  0  0  0  0  0
   -1.2998   -0.4695    0.2666 C   0  0  0  0  0  0  0  0  0  0  0  0
   -2.8547    1.7188    1.0265 C   0  0  0  0  0  0  0  0  0  0  0  0
   -2.6848   -0.5076    0.1037 C   0  0  0  0  0  0  0  0  0  0  0  0
   -3.4622    0.5864    0.4835 C   0  0  0  0  0  0  0  0  0  0  0  0
    6.8769   -3.7047    0.3185 C   0  0  0  0  0  0  0  0  0  0  0  0
    9.8385   -0.0453    0.9597 C   0  0  0  0  0  0  0  0  0  0  0  0
   -5.6264   -0.4922   -0.2018 C   0  0  0  0  0  0  0  0  0  0  0  0
   -7.0919   -0.2438   -0.2203 C   0  0  0  0  0  0  0  0  0  0  0  0
   -7.9827   -1.3159   -0.1660 C   0  0  0  0  0  0  0  0  0  0  0  0
   -7.5761    1.0625   -0.2926 C   0  0  0  0  0  0  0  0  0  0  0  0
   -9.3577   -1.0818   -0.1837 C   0  0  0  0  0  0  0  0  0  0  0  0
   -8.9511    1.2965   -0.3106 C   0  0  0  0  0  0  0  0  0  0  0  0
   -9.8419    0.2244   -0.2560 C   0  0  0  0  0  0  0  0  0  0  0  0
    3.1126    3.2274   -0.9213 H   0  0  0  0  0  0  0  0  0  0  0  0
    3.4562    1.9066   -2.0442 H   0  0  0  0  0  0  0  0  0  0  0  0
    3.1822   -0.4799   -1.2459 H   0  0  0  0  0  0  0  0  0  0  0  0
    3.1488   -0.7278    0.5119 H   0  0  0  0  0  0  0  0  0  0  0  0
    5.1699    2.9628    0.2659 H   0  0  0  0  0  0  0  0  0  0  0  0
    5.5508    2.9627   -1.4651 H   0  0  0  0  0  0  0  0  0  0  0  0
    1.1327    2.2979   -0.3877 H   0  0  0  0  0  0  0  0  0  0  0  0
    1.2076    0.7260   -1.1607 H   0  0  0  0  0  0  0  0  0  0  0  0
    1.0520    1.3079    1.8688 H   0  0  0  0  0  0  0  0  0  0  0  0
    1.1492   -0.3108    1.2146 H   0  0  0  0  0  0  0  0  0  0  0  0
    5.0573   -2.1909    0.0817 H   0  0  0  0  0  0  0  0  0  0  0  0
    7.7444    1.9163   -0.6393 H   0  0  0  0  0  0  0  0  0  0  0  0
   -1.0079    2.6451    1.6122 H   0  0  0  0  0  0  0  0  0  0  0  0
   -0.7033   -1.3266   -0.0349 H   0  0  0  0  0  0  0  0  0  0  0  0
   -3.4478    2.5791    1.3265 H   0  0  0  0  0  0  0  0  0  0  0  0
   -3.0793   -1.4185   -0.3236 H   0  0  0  0  0  0  0  0  0  0  0  0
    7.5417   -4.5639    0.4556 H   0  0  0  0  0  0  0  0  0  0  0  0
    6.2605   -3.9182   -0.5614 H   0  0  0  0  0  0  0  0  0  0  0  0
    6.2824   -3.6147    1.2340 H   0  0  0  0  0  0  0  0  0  0  0  0
   10.9169   -0.1103    0.7913 H   0  0  0  0  0  0  0  0  0  0  0  0
    9.5485   -0.8214    1.6751 H   0  0  0  0  0  0  0  0  0  0  0  0
    9.6063    0.9449    1.3644 H   0  0  0  0  0  0  0  0  0  0  0  0
   -5.3229    1.3753    0.6708 H   0  0  0  0  0  0  0  0  0  0  0  0
   -7.6098   -2.3358   -0.1044 H   0  0  0  0  0  0  0  0  0  0  0  0
   -6.9225    1.9254   -0.3759 H   0  0  0  0  0  0  0  0  0  0  0  0
   -9.3286    2.3128   -0.3760 H   0  0  0  0  0  0  0  0  0  0  0  0
  -10.9102    0.4241   -0.2729 H   0  0  0  0  0  0  0  0  0  0  0  0
  1 30  1  0  0  0  0
  2 16  1  0  0  0  0
  2 24  1  0  0  0  0
  3 17  1  0  0  0  0
  3 25  1  0  0  0  0
  4 26  2  0  0  0  0
  5  7  1  0  0  0  0
  5  8  1  0  0  0  0
  5 12  1  0  0  0  0
  6 23  1  0  0  0  0
  6 26  1  0  0  0  0
  6 55  1  0  0  0  0
  7  9  1  0  0  0  0
  7 33  1  0  0  0  0
  7 34  1  0  0  0  0
  8 10  1  0  0  0  0
  8 35  1  0  0  0  0
  8 36  1  0  0  0  0
  9 11  1  0  0  0  0
  9 37  1  0  0  0  0
  9 38  1  0  0  0  0
 10 11  1  0  0  0  0
 10 14  2  0  0  0  0
 11 15  2  0  0  0  0
 12 13  1  0  0  0  0
 12 39  1  0  0  0  0
 12 40  1  0  0  0  0
 13 18  1  0  0  0  0
 13 41  1  0  0  0  0
 13 42  1  0  0  0  0
 14 16  1  0  0  0  0
 14 43  1  0  0  0  0
 15 17  1  0  0  0  0
 15 44  1  0  0  0  0
 16 17  2  0  0  0  0
 18 19  2  0  0  0  0
 18 20  1  0  0  0  0
 19 21  1  0  0  0  0
 19 45  1  0  0  0  0
 20 22  2  0  0  0  0
 20 46  1  0  0  0  0
 21 23  2  0  0  0  0
 21 47  1  0  0  0  0
 22 23  1  0  0  0  0
 22 48  1  0  0  0  0
 24 49  1  0  0  0  0
 24 50  1  0  0  0  0
 24 51  1  0  0  0  0
 25 52  1  0  0  0  0
 25 53  1  0  0  0  0
 25 54  1  0  0  0  0
 26 27  1  0  0  0  0
 27 28  2  0  0  0  0
 27 29  1  0  0  0  0
 28 30  1  0  0  0  0
 28 56  1  0  0  0  0
 29 31  2  0  0  0  0
 29 57  1  0  0  0  0
 30 32  2  0  0  0  0
 31 32  1  0  0  0  0
 31 58  1  0  0  0  0
 32 59  1  0  0  0  0
M  END
> <PUBCHEM_COMPOUND_CID>
44451832

> <PUBCHEM_CONFORMER_RMSD>
1

> <PUBCHEM_CONFORMER_DIVERSEORDER>
3
14
112
108
7
96
59
25
115
23
79
116
98
74
10
114
107
91
43
41
70
45
113
99
62
76
40
52
72
28
87
68
111
109
1
84
4
94
58
48
21
78
102
22
101
9
92
2
49
110
33
55
97
66
6
11
85
106
8
82
5
20
104
105
12
103
100
16
64
53
29
83
86
15
65
13
90
75
38
36
61
89
80
63
44
51
56
95
19
69
34
46
77
93
54
60
50
35
26
30
67
57
73
18
31
88
47
27
71
17
42
24
117
81
39
37
32

> <PUBCHEM_MMFF94_PARTIAL_CHARGES>
43
1 -0.11
10 -0.14
11 -0.14
12 0.27
13 0.14
14 -0.15
15 -0.15
16 0.08
17 0.08
18 -0.14
19 -0.15
2 -0.36
20 -0.15
21 -0.15
22 -0.15
23 0.12
24 0.28
25 0.28
26 0.54
27 0.09
28 -0.15
29 -0.15
3 -0.36
30 0.11
31 -0.15
32 -0.15
4 -0.57
43 0.15
44 0.15
45 0.15
46 0.15
47 0.15
48 0.15
5 -0.81
55 0.37
56 0.15
57 0.15
58 0.15
59 0.15
6 -0.55
7 0.27
8 0.41
9 0.14

> <PUBCHEM_EFFECTIVE_ROTOR_COUNT>
8.8

> <PUBCHEM_PHARMACOPHORE_FEATURES>
10
1 1 hydrophobe
1 2 acceptor
1 3 acceptor
1 4 acceptor
1 5 cation
1 6 donor
6 10 11 14 15 16 17 rings
6 18 19 20 21 22 23 rings
6 27 28 29 30 31 32 rings
6 5 7 8 9 10 11 rings

> <PUBCHEM_HEAVY_ATOM_COUNT>
32

> <PUBCHEM_ATOM_DEF_STEREO_COUNT>
0

> <PUBCHEM_ATOM_UDEF_STEREO_COUNT>
0

> <PUBCHEM_BOND_DEF_STEREO_COUNT>
0

> <PUBCHEM_BOND_UDEF_STEREO_COUNT>
0

> <PUBCHEM_ISOTOPIC_ATOM_COUNT>
0

> <PUBCHEM_COMPONENT_COUNT>
1

> <PUBCHEM_CACTVS_TAUTO_COUNT>
2

> <PUBCHEM_CONFORMER_ID>
02A647F800000003

> <PUBCHEM_MMFF94_ENERGY>
110.792

> <PUBCHEM_FEATURE_SELFOVERLAP>
50.772

> <PUBCHEM_SHAPE_FINGERPRINT>
10 15 7925914777587180521
10066227 49 18409449154892432019
10162869 55 18408887343648396732
10299344 5 18413109477089275829
106641 1 10159697997976590469
11135609 127 17895764031920762412
11386260 185 17022908990278092956
12082328 90 18408601471031279317
12089408 11 18412547617904833265
12522641 33 13912312491757224521
12592606 108 18410856542465227723
13947934 56 18340201887069053008
14150022 121 12751253480139684339
14202775 3 18334299812464128963
14251764 46 18410573989456974436
14617042 71 9943513129429690794
150020 25 17603305977524436955
15065858 18 18273492368795633196
15183329 4 18187083944570522336
15198563 99 16370999664303668997
15247644 1 16989129759441777119
15320294 125 17846492634734618398
15326923 82 18335700564634270216
15510794 2 18040720302903402235
15773216 30 16805874083463038555
16728433 110 17846213392708988448
1754911 235 17675919907609002741
19301679 30 17916591917275667380
19841028 212 18336543820716379514
20105231 36 18338802338639507427
21130935 74 18129102209283609954
21792961 116 18410577306442962145
21895431 317 18113891616469348826
22224240 67 12823296797199800541
232437 2 18411701006910083775
249057 3 16877947174422710329
3633792 109 18259987058765811737
3991529 128 14620785017708944938
439807 62 18343865524068143232
5283156 175 18343585139744236656
54039377 194 18341895221555214111
58083652 198 17346320444695211689
58902169 19 18041562558912025413
59520757 100 15792024428029197730
59682541 35 12751235917711922333
6081469 158 17894911823865785324
6438161 24 18413387635823784928
67123 10 18411419518262429189
9663363 56 16272207484297752953
99344 41 18341896264378095271
9953998 17 12751235913949977789

> <PUBCHEM_SHAPE_MULTIPOLES>
636.92
40.66
2.61
0.88
31.65
1.7
0.11
19.8
-4.24
-2.55
-0.03
-0.28
-0.27
-1.43

> <PUBCHEM_SHAPE_SELFOVERLAP>
1356.553

> <PUBCHEM_SHAPE_VOLUME>
363.1

> <PUBCHEM_COORDINATE_TYPE>
2
5
10

$$$$