25
 OpenBabel03292021433D

204204  0  0  1  0  0  0  0  0999 V2000
    2.7574   -5.4205    0.5209 C   0  0  0  0  0  0  0  0  0  0  0  0
    3.8726   -4.7757   -0.2368 C   0  0  0  0  0  0  0  0  0  0  0  0
    4.9203   -5.4583   -0.7192 C   0  0  0  0  0  0  0  0  0  0  0  0
    6.1093   -4.9433   -1.4846 C   0  0  0  0  0  0  0  0  0  0  0  0
    6.1175   -3.5385   -2.1289 C   0  0  1  0  0  0  0  0  0  0  0  0
    4.8630   -3.3599   -3.0266 C   0  0  0  0  0  0  0  0  0  0  0  0
    6.3718   -2.3034   -1.1950 C   0  0  1  0  0  0  0  0  0  0  0  0
    6.2229   -1.1347   -2.0380 O   0  0  0  0  0  0  0  0  0  0  0  0
    7.7339   -2.0603   -0.3706 C   0  0  1  0  0  0  0  0  0  0  0  0
    7.6272   -2.5059    1.1902 C   0  0  0  0  0  0  0  0  0  0  0  0
    6.6901   -3.2111    1.5687 O   0  0  0  0  0  0  0  0  0  0  0  0
    8.4699   -1.9038    2.1549 N   0  0  0  0  0  0  0  0  0  0  0  0
    8.1257   -1.8542    3.6322 C   0  0  1  0  0  0  0  0  0  0  0  0
    7.0248   -0.7656    3.9723 C   0  0  1  0  0  0  0  0  0  0  0  0
    5.6238   -1.3527    4.1019 C   0  0  0  0  0  0  0  0  0  0  0  0
    7.2513   -0.0561    5.2049 O   0  0  0  0  0  0  0  0  0  0  0  0
    9.1636   -1.8062    4.8253 C   0  0  0  0  0  0  0  0  0  0  0  0
    8.7151   -2.0004    5.9689 O   0  0  0  0  0  0  0  0  0  0  0  0
   10.4855   -1.3771    4.6853 N   0  0  0  0  0  0  0  0  0  0  0  0
   10.5405    0.0515    4.3626 C   0  0  0  0  0  0  0  0  0  0  0  0
   11.3882   -1.7278    5.8434 C   0  0  0  0  0  0  0  0  0  0  0  0
   11.9991   -3.1534    6.1005 C   0  0  0  0  0  0  0  0  0  0  0  0
   13.1233   -3.2387    6.6246 O   0  0  0  0  0  0  0  0  0  0  0  0
   11.3016   -4.2948    5.7526 N   0  0  0  0  0  0  0  0  0  0  0  0
    9.9205   -4.4050    6.1866 C   0  0  0  0  0  0  0  0  0  0  0  0
   12.0207   -5.5812    5.4543 C   0  0  2  0  0  0  0  0  0  0  0  0
   11.0797   -6.3819    4.5000 C   0  0  0  0  0  0  0  0  0  0  0  0
   11.5193   -7.7567    4.0314 C   0  0  0  0  0  0  0  0  0  0  0  0
   10.4020   -8.4515    3.2408 C   0  0  0  0  0  0  0  0  0  0  0  0
   12.7400   -7.6589    3.1529 C   0  0  0  0  0  0  0  0  0  0  0  0
   12.3726   -6.3402    6.7744 C   0  0  0  0  0  0  0  0  0  0  0  0
   11.4717   -6.6589    7.5632 O   0  0  0  0  0  0  0  0  0  0  0  0
   13.6502   -6.6248    7.1700 N   0  0  0  0  0  0  0  0  0  0  0  0
   14.9256   -6.7891    6.4274 C   0  0  1  0  0  0  0  0  0  0  0  0
   16.1240   -6.5822    7.3706 C   0  0  0  0  0  0  0  0  0  0  0  0
   16.2845   -5.3052    8.2103 C   0  0  0  0  0  0  0  0  0  0  0  0
   17.4844   -5.5168    9.1548 C   0  0  0  0  0  0  0  0  0  0  0  0
   16.5407   -4.0674    7.3567 C   0  0  0  0  0  0  0  0  0  0  0  0
   14.9494   -8.2639    5.8331 C   0  0  0  0  0  0  0  0  0  0  0  0
   13.8969   -8.9342    5.7890 O   0  0  0  0  0  0  0  0  0  0  0  0
   16.0901   -8.7538    5.1914 N   0  0  0  0  0  0  0  0  0  0  0  0
   17.2716   -9.0914    5.9819 C   0  0  0  0  0  0  0  0  0  0  0  0
   15.8678   -9.6157    3.9792 C   0  0  2  0  0  0  0  0  0  0  0  0
   15.6699  -11.1176    4.2948 C   0  0  0  0  0  0  0  0  0  0  0  0
   15.2584  -12.0191    3.1102 C   0  0  0  0  0  0  0  0  0  0  0  0
   16.3868  -12.2993    2.1137 C   0  0  0  0  0  0  0  0  0  0  0  0
   14.7083  -13.3476    3.6269 C   0  0  0  0  0  0  0  0  0  0  0  0
   16.9982   -9.3960    2.9485 C   0  0  0  0  0  0  0  0  0  0  0  0
   18.1906   -9.5495    3.2264 O   0  0  0  0  0  0  0  0  0  0  0  0
   16.7051   -9.0491    1.6596 N   0  0  0  0  0  0  0  0  0  0  0  0
   15.4534   -8.5367    1.1215 C   0  0  1  0  0  0  0  0  0  0  0  0
   15.7264   -7.2852    0.3376 C   0  0  0  0  0  0  0  0  0  0  0  0
   14.4661   -9.5947    0.5372 C   0  0  0  0  0  0  0  0  0  0  0  0
   13.5768  -10.0559    1.2660 O   0  0  0  0  0  0  0  0  0  0  0  0
   14.4615  -10.1648   -0.6934 N   0  0  0  0  0  0  0  0  0  0  0  0
   14.8601   -9.6197   -1.9908 C   0  0  2  0  0  0  0  0  0  0  0  0
   14.0009  -10.2823   -2.9555 O   0  0  0  0  0  0  0  0  0  0  0  0
   16.2593  -10.1289   -2.4093 C   0  0  0  0  0  0  0  0  0  0  0  0
   17.4460   -9.7032   -1.5608 C   0  0  0  0  0  0  0  0  0  0  0  0
   16.2811  -11.6850   -2.4464 C   0  0  0  0  0  0  0  0  0  0  0  0
   14.2090   -8.1644   -2.0272 C   0  0  0  0  0  0  0  0  0  0  0  0
   13.2143   -8.0054   -1.2930 O   0  0  0  0  0  0  0  0  0  0  0  0
   14.6092   -7.1086   -2.8262 N   0  0  0  0  0  0  0  0  0  0  0  0
   15.8506   -7.1229   -3.5812 C   0  0  0  0  0  0  0  0  0  0  0  0
   13.9816   -5.7444   -2.6082 C   0  0  1  0  0  0  0  0  0  0  0  0
   12.4421   -5.7721   -2.4678 C   0  0  0  0  0  0  0  0  0  0  0  0
   11.7164   -6.5114   -3.6137 C   0  0  0  0  0  0  0  0  0  0  0  0
   10.2545   -6.7620   -3.2415 C   0  0  0  0  0  0  0  0  0  0  0  0
   11.7962   -5.7071   -4.9129 C   0  0  0  0  0  0  0  0  0  0  0  0
   14.8508   -4.9260   -1.5938 C   0  0  0  0  0  0  0  0  0  0  0  0
   16.0909   -4.9585   -1.6949 O   0  0  0  0  0  0  0  0  0  0  0  0
   14.4326   -4.1149   -0.5949 N   0  0  0  0  0  0  0  0  0  0  0  0
   13.1332   -3.5884   -0.1604 C   0  0  1  0  0  0  0  0  0  0  0  0
   13.2600   -3.0071    1.2358 C   0  0  0  0  0  0  0  0  0  0  0  0
   13.8262   -3.8279    2.3978 C   0  0  0  0  0  0  0  0  0  0  0  0
   15.2754   -4.2582    2.2823 C   0  0  0  0  0  0  0  0  0  0  0  0
   13.7490   -2.9071    3.6072 C   0  0  0  0  0  0  0  0  0  0  0  0
   12.7457   -2.5514   -1.2660 C   0  0  0  0  0  0  0  0  0  0  0  0
   13.1516   -2.8345   -2.4013 O   0  0  0  0  0  0  0  0  0  0  0  0
   11.8957   -1.4697   -1.0842 N   0  0  0  0  0  0  0  0  0  0  0  0
   11.6694   -0.7564    0.1699 C   0  0  0  0  0  0  0  0  0  0  0  0
   11.0755   -0.9087   -2.2151 C   0  0  1  0  0  0  0  0  0  0  0  0
   11.4271   -1.3334   -3.6717 C   0  0  0  0  0  0  0  0  0  0  0  0
   10.4730   -0.7967   -4.7371 C   0  0  0  0  0  0  0  0  0  0  0  0
   12.8493   -0.8440   -4.0754 C   0  0  0  0  0  0  0  0  0  0  0  0
    9.5656   -0.9409   -1.7099 C   0  0  0  0  0  0  0  0  0  0  0  0
    8.9652    0.1341   -1.6403 O   0  0  0  0  0  0  0  0  0  0  0  0
    9.0248   -2.1369   -1.1729 N   0  0  0  0  0  0  0  0  0  0  0  0
    9.2935   -3.3412   -1.9259 C   0  0  0  0  0  0  0  0  0  0  0  0
    2.2684   -4.6769    1.1579 H   0  0  0  0  0  0  0  0  0  0  0  0
    3.1226   -6.2234    1.1689 H   0  0  0  0  0  0  0  0  0  0  0  0
    2.0088   -5.8245   -0.1672 H   0  0  0  0  0  0  0  0  0  0  0  0
    3.8003   -3.7014   -0.3536 H   0  0  0  0  0  0  0  0  0  0  0  0
    4.9322   -6.5392   -0.5636 H   0  0  0  0  0  0  0  0  0  0  0  0
    6.2398   -5.6547   -2.3164 H   0  0  0  0  0  0  0  0  0  0  0  0
    6.9909   -5.0766   -0.8528 H   0  0  0  0  0  0  0  0  0  0  0  0
    6.9228   -3.5542   -2.8670 H   0  0  0  0  0  0  0  0  0  0  0  0
    4.0051   -2.9718   -2.4705 H   0  0  0  0  0  0  0  0  0  0  0  0
    4.5646   -4.3025   -3.5004 H   0  0  0  0  0  0  0  0  0  0  0  0
    5.0692   -2.6561   -3.8415 H   0  0  0  0  0  0  0  0  0  0  0  0
    5.5482   -2.2491   -0.4754 H   0  0  0  0  0  0  0  0  0  0  0  0
    5.2854   -1.0437   -2.2757 H   0  0  0  0  0  0  0  0  0  0  0  0
    7.6637   -0.9797   -0.1724 H   0  0  0  0  0  0  0  0  0  0  0  0
    9.3804   -1.5800    1.8795 H   0  0  0  0  0  0  0  0  0  0  0  0
    7.6652   -2.8389    3.8022 H   0  0  0  0  0  0  0  0  0  0  0  0
    7.0248    0.0063    3.1965 H   0  0  0  0  0  0  0  0  0  0  0  0
    5.5945   -2.1270    4.8767 H   0  0  0  0  0  0  0  0  0  0  0  0
    5.2760   -1.7854    3.1645 H   0  0  0  0  0  0  0  0  0  0  0  0
    4.9097   -0.5802    4.4135 H   0  0  0  0  0  0  0  0  0  0  0  0
    7.3396   -0.7285    5.9237 H   0  0  0  0  0  0  0  0  0  0  0  0
    9.7945    0.6011    4.9523 H   0  0  0  0  0  0  0  0  0  0  0  0
   10.3338    0.1996    3.3030 H   0  0  0  0  0  0  0  0  0  0  0  0
   11.5215    0.4793    4.5933 H   0  0  0  0  0  0  0  0  0  0  0  0
   10.9599   -1.3571    6.7819 H   0  0  0  0  0  0  0  0  0  0  0  0
   12.3010   -1.1351    5.6623 H   0  0  0  0  0  0  0  0  0  0  0  0
    9.2829   -4.2791    5.3074 H   0  0  0  0  0  0  0  0  0  0  0  0
    9.7167   -3.6847    6.9775 H   0  0  0  0  0  0  0  0  0  0  0  0
    9.6970   -5.3831    6.6117 H   0  0  0  0  0  0  0  0  0  0  0  0
   12.9507   -5.3277    4.9409 H   0  0  0  0  0  0  0  0  0  0  0  0
   10.1081   -6.5437    4.9783 H   0  0  0  0  0  0  0  0  0  0  0  0
   10.8763   -5.7553    3.6188 H   0  0  0  0  0  0  0  0  0  0  0  0
   11.7301   -8.3785    4.9061 H   0  0  0  0  0  0  0  0  0  0  0  0
   10.1752   -7.9140    2.3127 H   0  0  0  0  0  0  0  0  0  0  0  0
    9.4813   -8.5144    3.8295 H   0  0  0  0  0  0  0  0  0  0  0  0
   10.6973   -9.4719    2.9728 H   0  0  0  0  0  0  0  0  0  0  0  0
   12.5237   -7.1974    2.1827 H   0  0  0  0  0  0  0  0  0  0  0  0
   13.0740   -8.6753    2.9771 H   0  0  0  0  0  0  0  0  0  0  0  0
   13.5563   -7.1046    3.6188 H   0  0  0  0  0  0  0  0  0  0  0  0
   13.5997   -7.1559    8.0287 H   0  0  0  0  0  0  0  0  0  0  0  0
   14.9454   -6.0859    5.5911 H   0  0  0  0  0  0  0  0  0  0  0  0
   17.0371   -6.6639    6.7696 H   0  0  0  0  0  0  0  0  0  0  0  0
   16.1117   -7.4147    8.0871 H   0  0  0  0  0  0  0  0  0  0  0  0
   15.3911   -5.1437    8.8238 H   0  0  0  0  0  0  0  0  0  0  0  0
   18.4017   -5.7221    8.5885 H   0  0  0  0  0  0  0  0  0  0  0  0
   17.3124   -6.3707    9.8203 H   0  0  0  0  0  0  0  0  0  0  0  0
   17.6662   -4.6375    9.7799 H   0  0  0  0  0  0  0  0  0  0  0  0
   17.4243   -4.1972    6.7216 H   0  0  0  0  0  0  0  0  0  0  0  0
   16.7184   -3.1927    7.9933 H   0  0  0  0  0  0  0  0  0  0  0  0
   15.6878   -3.8479    6.7125 H   0  0  0  0  0  0  0  0  0  0  0  0
   17.2176   -8.7312    7.0056 H   0  0  0  0  0  0  0  0  0  0  0  0
   18.1644   -8.6858    5.5011 H   0  0  0  0  0  0  0  0  0  0  0  0
   17.3619  -10.1740    6.0826 H   0  0  0  0  0  0  0  0  0  0  0  0
   14.9332   -9.2768    3.5554 H   0  0  0  0  0  0  0  0  0  0  0  0
   16.5761  -11.5386    4.7396 H   0  0  0  0  0  0  0  0  0  0  0  0
   14.8892  -11.1885    5.0620 H   0  0  0  0  0  0  0  0  0  0  0  0
   14.4300  -11.5527    2.5835 H   0  0  0  0  0  0  0  0  0  0  0  0
   17.3426  -12.4514    2.6223 H   0  0  0  0  0  0  0  0  0  0  0  0
   16.5089  -11.4875    1.3968 H   0  0  0  0  0  0  0  0  0  0  0  0
   16.1790  -13.1874    1.5094 H   0  0  0  0  0  0  0  0  0  0  0  0
   15.4563  -13.8858    4.2156 H   0  0  0  0  0  0  0  0  0  0  0  0
   14.3982  -13.9850    2.7916 H   0  0  0  0  0  0  0  0  0  0  0  0
   13.8250  -13.1781    4.2516 H   0  0  0  0  0  0  0  0  0  0  0  0
   17.5448   -8.9200    1.1083 H   0  0  0  0  0  0  0  0  0  0  0  0
   14.9240   -8.1315    1.9802 H   0  0  0  0  0  0  0  0  0  0  0  0
   16.1773   -7.4721   -0.6268 H   0  0  0  0  0  0  0  0  0  0  0  0
   16.4329   -6.6413    0.8702 H   0  0  0  0  0  0  0  0  0  0  0  0
   14.7919   -6.7382    0.2080 H   0  0  0  0  0  0  0  0  0  0  0  0
   13.6640  -10.7841   -0.7105 H   0  0  0  0  0  0  0  0  0  0  0  0
   13.2023  -10.5772   -2.4947 H   0  0  0  0  0  0  0  0  0  0  0  0
   16.4610   -9.8259   -3.4396 H   0  0  0  0  0  0  0  0  0  0  0  0
   17.3870  -10.1428   -0.5648 H   0  0  0  0  0  0  0  0  0  0  0  0
   17.5500   -8.6239   -1.4906 H   0  0  0  0  0  0  0  0  0  0  0  0
   18.3781  -10.0711   -2.0050 H   0  0  0  0  0  0  0  0  0  0  0  0
   16.0433  -12.1148   -1.4659 H   0  0  0  0  0  0  0  0  0  0  0  0
   17.2691  -12.0557   -2.7370 H   0  0  0  0  0  0  0  0  0  0  0  0
   15.5649  -12.0868   -3.1709 H   0  0  0  0  0  0  0  0  0  0  0  0
   15.9255   -8.0402   -4.1583 H   0  0  0  0  0  0  0  0  0  0  0  0
   16.6970   -7.0486   -2.8941 H   0  0  0  0  0  0  0  0  0  0  0  0
   15.8836   -6.2847   -4.2822 H   0  0  0  0  0  0  0  0  0  0  0  0
   14.1603   -5.2016   -3.5460 H   0  0  0  0  0  0  0  0  0  0  0  0
   12.0488   -4.7613   -2.4662 H   0  0  0  0  0  0  0  0  0  0  0  0
   12.1327   -6.1617   -1.4938 H   0  0  0  0  0  0  0  0  0  0  0  0
   12.1749   -7.4904   -3.7867 H   0  0  0  0  0  0  0  0  0  0  0  0
    9.7120   -5.8246   -3.0980 H   0  0  0  0  0  0  0  0  0  0  0  0
   10.1814   -7.3443   -2.3167 H   0  0  0  0  0  0  0  0  0  0  0  0
    9.7461   -7.3252   -4.0308 H   0  0  0  0  0  0  0  0  0  0  0  0
   11.4083   -4.6923   -4.7734 H   0  0  0  0  0  0  0  0  0  0  0  0
   11.2137   -6.1850   -5.7061 H   0  0  0  0  0  0  0  0  0  0  0  0
   12.8285   -5.6275   -5.2665 H   0  0  0  0  0  0  0  0  0  0  0  0
   15.2333   -3.5880   -0.2673 H   0  0  0  0  0  0  0  0  0  0  0  0
   12.3977   -4.3967   -0.1678 H   0  0  0  0  0  0  0  0  0  0  0  0
   12.2468   -2.7296    1.5494 H   0  0  0  0  0  0  0  0  0  0  0  0
   13.8726   -2.1016    1.1685 H   0  0  0  0  0  0  0  0  0  0  0  0
   13.1958   -4.7084    2.5625 H   0  0  0  0  0  0  0  0  0  0  0  0
   15.9316   -3.4097    2.0662 H   0  0  0  0  0  0  0  0  0  0  0  0
   15.3928   -4.9929    1.4989 H   0  0  0  0  0  0  0  0  0  0  0  0
   15.6189   -4.7288    3.2106 H   0  0  0  0  0  0  0  0  0  0  0  0
   14.2955   -1.9711    3.4507 H   0  0  0  0  0  0  0  0  0  0  0  0
   14.1708   -3.3890    4.4891 H   0  0  0  0  0  0  0  0  0  0  0  0
   12.7059   -2.6469    3.7746 H   0  0  0  0  0  0  0  0  0  0  0  0
   12.5558   -0.6994    0.7910 H   0  0  0  0  0  0  0  0  0  0  0  0
   10.8587   -1.2484    0.7015 H   0  0  0  0  0  0  0  0  0  0  0  0
   11.3783    0.2808   -0.0258 H   0  0  0  0  0  0  0  0  0  0  0  0
   11.3200    0.1650   -2.1984 H   0  0  0  0  0  0  0  0  0  0  0  0
   11.3824   -2.4242   -3.7546 H   0  0  0  0  0  0  0  0  0  0  0  0
   10.5302    0.2944   -4.8095 H   0  0  0  0  0  0  0  0  0  0  0  0
    9.4392   -1.0854   -4.5421 H   0  0  0  0  0  0  0  0  0  0  0  0
   10.7547   -1.2051   -5.7171 H   0  0  0  0  0  0  0  0  0  0  0  0
   12.8327    0.1434   -4.5458 H   0  0  0  0  0  0  0  0  0  0  0  0
   13.2974   -1.5457   -4.7901 H   0  0  0  0  0  0  0  0  0  0  0  0
   13.5383   -0.7534   -3.2285 H   0  0  0  0  0  0  0  0  0  0  0  0
   10.3606   -3.5097   -2.0160 H   0  0  0  0  0  0  0  0  0  0  0  0
    8.9134   -3.2124   -2.9457 H   0  0  0  0  0  0  0  0  0  0  0  0
    8.8533   -4.2128   -1.4470 H   0  0  0  0  0  0  0  0  0  0  0  0
  1  2  1  0  0  0  0
  1 90  1  0  0  0  0
  1 91  1  0  0  0  0
  1 92  1  0  0  0  0
  2  3  2  0  0  0  0
  2 93  1  0  0  0  0
  3  4  1  0  0  0  0
  3 94  1  0  0  0  0
  4  5  1  0  0  0  0
  4 95  1  0  0  0  0
  4 96  1  0  0  0  0
  5  6  1  0  0  0  0
  5  7  1  0  0  0  0
  5 97  1  6  0  0  0
  6 98  1  0  0  0  0
  6 99  1  0  0  0  0
  6100  1  0  0  0  0
  7  8  1  0  0  0  0
  7101  1  6  0  0  0
  8102  1  0  0  0  0
  9 10  1  0  0  0  0
  9 88  1  0  0  0  0
  9  7  1  0  0  0  0
  9103  1  1  0  0  0
 10 11  2  0  0  0  0
 10 12  1  0  0  0  0
 12 13  1  0  0  0  0
 12104  1  0  0  0  0
 13 14  1  0  0  0  0
 13 17  1  0  0  0  0
 13105  1  6  0  0  0
 14 15  1  0  0  0  0
 14 16  1  0  0  0  0
 14106  1  6  0  0  0
 15107  1  0  0  0  0
 15108  1  0  0  0  0
 15109  1  0  0  0  0
 16110  1  0  0  0  0
 17 18  2  0  0  0  0
 17 19  1  0  0  0  0
 19 20  1  0  0  0  0
 19 21  1  0  0  0  0
 20111  1  0  0  0  0
 20112  1  0  0  0  0
 20113  1  0  0  0  0
 21 22  1  0  0  0  0
 21114  1  0  0  0  0
 21115  1  0  0  0  0
 22 23  2  0  0  0  0
 22 24  1  0  0  0  0
 24 25  1  0  0  0  0
 24 26  1  0  0  0  0
 25116  1  0  0  0  0
 25117  1  0  0  0  0
 25118  1  0  0  0  0
 26 31  1  0  0  0  0
 26 27  1  0  0  0  0
 26119  1  6  0  0  0
 27 28  1  0  0  0  0
 27120  1  0  0  0  0
 27121  1  0  0  0  0
 28 29  1  0  0  0  0
 28 30  1  0  0  0  0
 28122  1  0  0  0  0
 29123  1  0  0  0  0
 29124  1  0  0  0  0
 29125  1  0  0  0  0
 30126  1  0  0  0  0
 30127  1  0  0  0  0
 30128  1  0  0  0  0
 31 32  2  0  0  0  0
 31 33  1  0  0  0  0
 33 34  1  0  0  0  0
 33129  1  0  0  0  0
 34 35  1  0  0  0  0
 34 39  1  0  0  0  0
 34130  1  6  0  0  0
 35 36  1  0  0  0  0
 35131  1  0  0  0  0
 35132  1  0  0  0  0
 36 37  1  0  0  0  0
 36 38  1  0  0  0  0
 36133  1  0  0  0  0
 37134  1  0  0  0  0
 37135  1  0  0  0  0
 37136  1  0  0  0  0
 38137  1  0  0  0  0
 38138  1  0  0  0  0
 38139  1  0  0  0  0
 39 40  2  0  0  0  0
 39 41  1  0  0  0  0
 41 42  1  0  0  0  0
 41 43  1  0  0  0  0
 42140  1  0  0  0  0
 42141  1  0  0  0  0
 42142  1  0  0  0  0
 43 48  1  0  0  0  0
 43 44  1  0  0  0  0
 43143  1  6  0  0  0
 44 45  1  0  0  0  0
 44144  1  0  0  0  0
 44145  1  0  0  0  0
 45 46  1  0  0  0  0
 45 47  1  0  0  0  0
 45146  1  0  0  0  0
 46147  1  0  0  0  0
 46148  1  0  0  0  0
 46149  1  0  0  0  0
 47150  1  0  0  0  0
 47151  1  0  0  0  0
 47152  1  0  0  0  0
 48 49  2  0  0  0  0
 48 50  1  0  0  0  0
 50 51  1  0  0  0  0
 50153  1  0  0  0  0
 51 52  1  0  0  0  0
 51 53  1  0  0  0  0
 51154  1  1  0  0  0
 52155  1  0  0  0  0
 52156  1  0  0  0  0
 52157  1  0  0  0  0
 53 54  2  0  0  0  0
 53 55  1  0  0  0  0
 55 56  1  0  0  0  0
 55158  1  0  0  0  0
 56 57  1  6  0  0  0
 56 58  1  0  0  0  0
 56 61  1  0  0  0  0
 57159  1  0  0  0  0
 58 59  1  0  0  0  0
 58 60  1  0  0  0  0
 58160  1  0  0  0  0
 59161  1  0  0  0  0
 59162  1  0  0  0  0
 59163  1  0  0  0  0
 60164  1  0  0  0  0
 60165  1  0  0  0  0
 60166  1  0  0  0  0
 61 62  2  0  0  0  0
 61 63  1  0  0  0  0
 63 64  1  0  0  0  0
 63 65  1  0  0  0  0
 64167  1  0  0  0  0
 64168  1  0  0  0  0
 64169  1  0  0  0  0
 65 66  1  0  0  0  0
 65 70  1  0  0  0  0
 65170  1  6  0  0  0
 66 67  1  0  0  0  0
 66171  1  0  0  0  0
 66172  1  0  0  0  0
 67 68  1  0  0  0  0
 67 69  1  0  0  0  0
 67173  1  0  0  0  0
 68174  1  0  0  0  0
 68175  1  0  0  0  0
 68176  1  0  0  0  0
 69177  1  0  0  0  0
 69178  1  0  0  0  0
 69179  1  0  0  0  0
 70 71  2  0  0  0  0
 70 72  1  0  0  0  0
 72 73  1  0  0  0  0
 72180  1  0  0  0  0
 73 74  1  0  0  0  0
 73 78  1  0  0  0  0
 73181  1  1  0  0  0
 74 75  1  0  0  0  0
 74182  1  0  0  0  0
 74183  1  0  0  0  0
 75 76  1  0  0  0  0
 75 77  1  0  0  0  0
 75184  1  0  0  0  0
 76185  1  0  0  0  0
 76186  1  0  0  0  0
 76187  1  0  0  0  0
 77188  1  0  0  0  0
 77189  1  0  0  0  0
 77190  1  0  0  0  0
 78 79  2  0  0  0  0
 78 80  1  0  0  0  0
 80 81  1  0  0  0  0
 80 82  1  0  0  0  0
 81191  1  0  0  0  0
 81192  1  0  0  0  0
 81193  1  0  0  0  0
 82 83  1  0  0  0  0
 82 86  1  0  0  0  0
 82194  1  1  0  0  0
 83 84  1  0  0  0  0
 83 85  1  0  0  0  0
 83195  1  0  0  0  0
 84196  1  0  0  0  0
 84197  1  0  0  0  0
 84198  1  0  0  0  0
 85199  1  0  0  0  0
 85200  1  0  0  0  0
 85201  1  0  0  0  0
 86 87  2  0  0  0  0
 86 88  1  0  0  0  0
 88 89  1  0  0  0  0
 89202  1  0  0  0  0
 89203  1  0  0  0  0
 89204  1  0  0  0  0
M  END
>  <Energy>
511.202

$$$$