26
 OpenBabel03292021433D

201201  0  0  1  0  0  0  0  0999 V2000
    9.8279    2.4185   -2.7497 C   0  0  0  0  0  0  0  0  0  0  0  0
   10.3891    3.8358   -2.9315 C   0  0  0  0  0  0  0  0  0  0  0  0
   10.3746    5.0184   -1.9360 C   0  0  0  0  0  0  0  0  0  0  0  0
    9.8614    5.3005   -0.7089 C   0  0  0  0  0  0  0  0  0  0  0  0
   10.0311    6.7866    0.0490 C   0  0  0  0  0  0  0  0  0  0  0  0
    9.3086    7.9162    1.2052 C   0  0  1  0  0  0  0  0  0  0  0  0
    8.5045    7.0672    2.2148 C   0  0  0  0  0  0  0  0  0  0  0  0
    9.9708    9.4922    1.7166 C   0  0  0  0  0  0  0  0  0  0  0  0
   11.0245    9.9794    3.0163 C   0  0  1  0  0  0  0  0  0  0  0  0
   11.0325   11.5850    3.9222 C   0  0  0  0  0  0  0  0  0  0  0  0
    9.9622   12.0802    4.2861 O   0  0  0  0  0  0  0  0  0  0  0  0
   12.2879   12.2759    4.3585 N   0  0  0  0  0  0  0  0  0  0  0  0
   12.5109   13.5992    5.4285 C   0  0  1  0  0  0  0  0  0  0  0  0
   12.8268   15.0997    4.8875 C   0  0  0  0  0  0  0  0  0  0  0  0
   11.7185   15.7819    4.0786 C   0  0  0  0  0  0  0  0  0  0  0  0
   13.0978   16.1830    6.0112 C   0  0  0  0  0  0  0  0  0  0  0  0
   13.3942   13.4138    6.8319 C   0  0  0  0  0  0  0  0  0  0  0  0
   12.7988   12.9282    7.7935 O   0  0  0  0  0  0  0  0  0  0  0  0
   14.7104   13.8584    7.0870 N   0  0  0  0  0  0  0  0  0  0  0  0
   15.6557   14.2717    6.0558 C   0  0  0  0  0  0  0  0  0  0  0  0
   15.3729   13.5557    8.4161 C   0  0  0  0  0  0  0  0  0  0  0  0
   14.9846   13.7752    9.9433 C   0  0  0  0  0  0  0  0  0  0  0  0
   14.9364   12.7509   10.6453 O   0  0  0  0  0  0  0  0  0  0  0  0
   14.8731   15.0258   10.5698 N   0  0  0  0  0  0  0  0  0  0  0  0
   15.2543   16.2784    9.9395 C   0  0  0  0  0  0  0  0  0  0  0  0
   14.4921   15.0632   12.0431 C   0  0  2  0  0  0  0  0  0  0  0  0
   13.0947   15.7118   12.3097 C   0  0  0  0  0  0  0  0  0  0  0  0
   11.8790   14.8478   11.9338 C   0  0  0  0  0  0  0  0  0  0  0  0
   10.5756   15.4444   12.4776 C   0  0  0  0  0  0  0  0  0  0  0  0
   11.7316   14.7070   10.4294 C   0  0  0  0  0  0  0  0  0  0  0  0
   15.4722   15.8029   13.0242 C   0  0  0  0  0  0  0  0  0  0  0  0
   15.7997   16.9758   12.8336 O   0  0  0  0  0  0  0  0  0  0  0  0
   15.8883   15.2212   14.1943 N   0  0  0  0  0  0  0  0  0  0  0  0
   16.0789   13.7930   14.5174 C   0  0  1  0  0  0  0  0  0  0  0  0
   17.4234   13.5400   15.2433 C   0  0  0  0  0  0  0  0  0  0  0  0
   17.6935   12.0423   15.4230 C   0  0  0  0  0  0  0  0  0  0  0  0
   18.6327   14.1610   14.5244 C   0  0  0  0  0  0  0  0  0  0  0  0
   14.7415   13.2042   15.1109 C   0  0  0  0  0  0  0  0  0  0  0  0
   13.8492   12.9544   14.2818 O   0  0  0  0  0  0  0  0  0  0  0  0
   14.4244   13.0983   16.4641 N   0  0  0  0  0  0  0  0  0  0  0  0
   15.3788   12.9903   17.5632 C   0  0  0  0  0  0  0  0  0  0  0  0
   13.0393   12.6247   16.7706 C   0  0  2  0  0  0  0  0  0  0  0  0
   12.3873   13.3886   17.9425 C   0  0  0  0  0  0  0  0  0  0  0  0
   12.3209   14.9114   17.7104 C   0  0  0  0  0  0  0  0  0  0  0  0
   11.4736   15.2747   16.4886 C   0  0  0  0  0  0  0  0  0  0  0  0
   11.7625   15.5994   18.9547 C   0  0  0  0  0  0  0  0  0  0  0  0
   13.0143   11.0998   17.0319 C   0  0  0  0  0  0  0  0  0  0  0  0
   13.6324   10.5947   17.9745 O   0  0  0  0  0  0  0  0  0  0  0  0
   12.3595   10.2600   16.1810 N   0  0  0  0  0  0  0  0  0  0  0  0
   11.4940   10.5840   15.0292 C   0  0  1  0  0  0  0  0  0  0  0  0
   11.5443    9.4346   14.0592 C   0  0  0  0  0  0  0  0  0  0  0  0
   10.1001   11.0539   15.6021 C   0  0  0  0  0  0  0  0  0  0  0  0
   10.0230   11.5816   16.6993 O   0  0  0  0  0  0  0  0  0  0  0  0
    8.9592   11.1002   14.8591 N   0  0  0  0  0  0  0  0  0  0  0  0
    8.1602    9.9367   14.4931 C   0  0  2  0  0  0  0  0  0  0  0  0
    8.3336    8.7268   15.4139 C   0  0  0  0  0  0  0  0  0  0  0  0
    8.3714    9.5936   13.0126 C   0  0  0  0  0  0  0  0  0  0  0  0
    8.9401    8.5677   12.7071 O   0  0  0  0  0  0  0  0  0  0  0  0
    7.8783   10.5247   12.0700 N   0  0  0  0  0  0  0  0  0  0  0  0
    6.4547   10.8593   12.1244 C   0  0  0  0  0  0  0  0  0  0  0  0
    8.4431   10.5762   10.6869 C   0  0  1  0  0  0  0  0  0  0  0  0
    9.8999   11.0310   10.6399 C   0  0  0  0  0  0  0  0  0  0  0  0
   10.5442   10.9630    9.2468 C   0  0  0  0  0  0  0  0  0  0  0  0
   10.0062   12.0438    8.3061 C   0  0  0  0  0  0  0  0  0  0  0  0
   12.0600   10.9426    9.4262 C   0  0  0  0  0  0  0  0  0  0  0  0
    7.9618    9.3962    9.7875 C   0  0  0  0  0  0  0  0  0  0  0  0
    6.9552    9.5954    9.0977 O   0  0  0  0  0  0  0  0  0  0  0  0
    8.5301    8.1399    9.8746 N   0  0  0  0  0  0  0  0  0  0  0  0
    9.9312    7.9016   10.2425 C   0  0  0  0  0  0  0  0  0  0  0  0
    7.9051    6.9839    9.2151 C   0  0  1  0  0  0  0  0  0  0  0  0
    6.3810    6.8196    9.2982 C   0  0  0  0  0  0  0  0  0  0  0  0
    5.8856    5.4682    8.7329 C   0  0  0  0  0  0  0  0  0  0  0  0
    6.4514    4.2611    9.4858 C   0  0  0  0  0  0  0  0  0  0  0  0
    4.3586    5.4203    8.7504 C   0  0  0  0  0  0  0  0  0  0  0  0
    8.6567    6.6064    7.9032 C   0  0  0  0  0  0  0  0  0  0  0  0
    9.3960    5.6217    7.9880 O   0  0  0  0  0  0  0  0  0  0  0  0
    8.6275    7.3930    6.7734 N   0  0  0  0  0  0  0  0  0  0  0  0
    7.3366    7.8154    6.2182 C   0  0  0  0  0  0  0  0  0  0  0  0
    9.9084    7.8777    6.1071 C   0  0  1  0  0  0  0  0  0  0  0  0
   11.1500    6.9317    6.1983 C   0  0  0  0  0  0  0  0  0  0  0  0
   11.9854    7.0626    7.4679 C   0  0  0  0  0  0  0  0  0  0  0  0
   10.9243    5.4918    5.7239 C   0  0  0  0  0  0  0  0  0  0  0  0
    9.8434    8.6503    4.6952 C   0  0  0  0  0  0  0  0  0  0  0  0
    8.7937    9.2402    4.3499 O   0  0  0  0  0  0  0  0  0  0  0  0
   11.0274    8.8354    3.9405 N   0  0  0  0  0  0  0  0  0  0  0  0
   11.6822    7.6593    3.3319 C   0  0  0  0  0  0  0  0  0  0  0  0
   10.0699    1.8283   -3.6534 H   0  0  0  0  0  0  0  0  0  0  0  0
    8.7383    2.3942   -2.6656 H   0  0  0  0  0  0  0  0  0  0  0  0
   10.2800    1.8803   -1.9133 H   0  0  0  0  0  0  0  0  0  0  0  0
    9.9242    4.2094   -3.8565 H   0  0  0  0  0  0  0  0  0  0  0  0
   11.4462    3.6835   -3.1968 H   0  0  0  0  0  0  0  0  0  0  0  0
   10.9288    5.8423   -2.3871 H   0  0  0  0  0  0  0  0  0  0  0  0
    9.2723    4.5385   -0.1923 H   0  0  0  0  0  0  0  0  0  0  0  0
   10.4749    6.2266    0.8816 H   0  0  0  0  0  0  0  0  0  0  0  0
    9.0201    6.8334   -0.3922 H   0  0  0  0  0  0  0  0  0  0  0  0
    8.5059    8.3400    0.5717 H   0  0  0  0  0  0  0  0  0  0  0  0
    9.1331    6.5064    2.9068 H   0  0  0  0  0  0  0  0  0  0  0  0
    7.9151    6.3063    1.6791 H   0  0  0  0  0  0  0  0  0  0  0  0
    7.7794    7.6627    2.7702 H   0  0  0  0  0  0  0  0  0  0  0  0
   10.4318    9.8855    0.8012 H   0  0  0  0  0  0  0  0  0  0  0  0
    9.0623   10.0893    1.8781 H   0  0  0  0  0  0  0  0  0  0  0  0
   12.0212   10.0139    2.5530 H   0  0  0  0  0  0  0  0  0  0  0  0
   13.1390   11.7633    4.1943 H   0  0  0  0  0  0  0  0  0  0  0  0
   11.4845   13.6968    5.8122 H   0  0  0  0  0  0  0  0  0  0  0  0
   13.7087   15.0555    4.2426 H   0  0  0  0  0  0  0  0  0  0  0  0
   10.8708   16.0578    4.7185 H   0  0  0  0  0  0  0  0  0  0  0  0
   11.3687   15.1788    3.2457 H   0  0  0  0  0  0  0  0  0  0  0  0
   12.1050   16.7311    3.6710 H   0  0  0  0  0  0  0  0  0  0  0  0
   12.1896   16.4208    6.5779 H   0  0  0  0  0  0  0  0  0  0  0  0
   13.4553   17.1207    5.5606 H   0  0  0  0  0  0  0  0  0  0  0  0
   13.8497   15.9498    6.7596 H   0  0  0  0  0  0  0  0  0  0  0  0
   15.8790   15.3370    6.1905 H   0  0  0  0  0  0  0  0  0  0  0  0
   15.2873   14.0771    5.0538 H   0  0  0  0  0  0  0  0  0  0  0  0
   16.5960   13.7232    6.1769 H   0  0  0  0  0  0  0  0  0  0  0  0
   16.3688   14.0234    8.3695 H   0  0  0  0  0  0  0  0  0  0  0  0
   15.5662   12.4757    8.3483 H   0  0  0  0  0  0  0  0  0  0  0  0
   15.4392   16.1531    8.8729 H   0  0  0  0  0  0  0  0  0  0  0  0
   16.1790   16.6408   10.3997 H   0  0  0  0  0  0  0  0  0  0  0  0
   14.4657   17.0216   10.0820 H   0  0  0  0  0  0  0  0  0  0  0  0
   14.4256   14.0329   12.3765 H   0  0  0  0  0  0  0  0  0  0  0  0
   13.0152   15.9290   13.3850 H   0  0  0  0  0  0  0  0  0  0  0  0
   13.0252   16.6876   11.8126 H   0  0  0  0  0  0  0  0  0  0  0  0
   11.9971   13.8523   12.3793 H   0  0  0  0  0  0  0  0  0  0  0  0
   10.3572   16.4123   12.0134 H   0  0  0  0  0  0  0  0  0  0  0  0
   10.6154   15.5832   13.5609 H   0  0  0  0  0  0  0  0  0  0  0  0
    9.7334   14.7752   12.2626 H   0  0  0  0  0  0  0  0  0  0  0  0
   11.7551   15.6752    9.9205 H   0  0  0  0  0  0  0  0  0  0  0  0
   10.7848   14.2246   10.1945 H   0  0  0  0  0  0  0  0  0  0  0  0
   12.5173   14.0837   10.0177 H   0  0  0  0  0  0  0  0  0  0  0  0
   16.4044   15.8880   14.7796 H   0  0  0  0  0  0  0  0  0  0  0  0
   16.1803   13.2919   13.5461 H   0  0  0  0  0  0  0  0  0  0  0  0
   17.4197   14.0356   16.2123 H   0  0  0  0  0  0  0  0  0  0  0  0
   18.0912   11.5974   14.5053 H   0  0  0  0  0  0  0  0  0  0  0  0
   16.7956   11.4797   15.6862 H   0  0  0  0  0  0  0  0  0  0  0  0
   18.4297   11.8850   16.2191 H   0  0  0  0  0  0  0  0  0  0  0  0
   18.7647   13.7434   13.5220 H   0  0  0  0  0  0  0  0  0  0  0  0
   19.5481   13.9678   15.0969 H   0  0  0  0  0  0  0  0  0  0  0  0
   18.5393   15.2480   14.4375 H   0  0  0  0  0  0  0  0  0  0  0  0
   16.1360   13.7603   17.5051 H   0  0  0  0  0  0  0  0  0  0  0  0
   15.8291   11.9949   17.5610 H   0  0  0  0  0  0  0  0  0  0  0  0
   14.8976   13.1385   18.5303 H   0  0  0  0  0  0  0  0  0  0  0  0
   12.4025   12.8265   15.9124 H   0  0  0  0  0  0  0  0  0  0  0  0
   11.3734   13.0066   18.1073 H   0  0  0  0  0  0  0  0  0  0  0  0
   12.9071   13.1781   18.8840 H   0  0  0  0  0  0  0  0  0  0  0  0
   13.3347   15.2970   17.5483 H   0  0  0  0  0  0  0  0  0  0  0  0
   10.4708   14.8393   16.5557 H   0  0  0  0  0  0  0  0  0  0  0  0
   11.9362   14.9198   15.5630 H   0  0  0  0  0  0  0  0  0  0  0  0
   11.3684   16.3602   16.3943 H   0  0  0  0  0  0  0  0  0  0  0  0
   10.7479   15.2538   19.1781 H   0  0  0  0  0  0  0  0  0  0  0  0
   11.7312   16.6849   18.8155 H   0  0  0  0  0  0  0  0  0  0  0  0
   12.3936   15.3927   19.8254 H   0  0  0  0  0  0  0  0  0  0  0  0
   12.3519    9.3037   16.5047 H   0  0  0  0  0  0  0  0  0  0  0  0
   11.8997   11.4600   14.5142 H   0  0  0  0  0  0  0  0  0  0  0  0
   11.1097    8.5173   14.4586 H   0  0  0  0  0  0  0  0  0  0  0  0
   12.5793    9.2033   13.7909 H   0  0  0  0  0  0  0  0  0  0  0  0
   11.0348    9.6933   13.1358 H   0  0  0  0  0  0  0  0  0  0  0  0
    8.3587   11.7497   15.3910 H   0  0  0  0  0  0  0  0  0  0  0  0
    7.1207   10.2328   14.6201 H   0  0  0  0  0  0  0  0  0  0  0  0
    9.3761    8.4944   15.6367 H   0  0  0  0  0  0  0  0  0  0  0  0
    7.8778    7.8298   14.9921 H   0  0  0  0  0  0  0  0  0  0  0  0
    7.8452    8.9249   16.3855 H   0  0  0  0  0  0  0  0  0  0  0  0
    6.1237   11.0627   13.1395 H   0  0  0  0  0  0  0  0  0  0  0  0
    5.8873   10.0059   11.7428 H   0  0  0  0  0  0  0  0  0  0  0  0
    6.2514   11.7454   11.5199 H   0  0  0  0  0  0  0  0  0  0  0  0
    7.9382   11.4351   10.2336 H   0  0  0  0  0  0  0  0  0  0  0  0
   10.5079   10.4832   11.3560 H   0  0  0  0  0  0  0  0  0  0  0  0
    9.9566   12.0681   11.0131 H   0  0  0  0  0  0  0  0  0  0  0  0
   10.3022   10.0232    8.7536 H   0  0  0  0  0  0  0  0  0  0  0  0
   10.0066   13.0363    8.7550 H   0  0  0  0  0  0  0  0  0  0  0  0
    8.9710   11.8244    8.0243 H   0  0  0  0  0  0  0  0  0  0  0  0
   10.5763   12.0857    7.3758 H   0  0  0  0  0  0  0  0  0  0  0  0
   12.4172   11.8381    9.9398 H   0  0  0  0  0  0  0  0  0  0  0  0
   12.5699   10.8221    8.4673 H   0  0  0  0  0  0  0  0  0  0  0  0
   12.3701   10.0847   10.0324 H   0  0  0  0  0  0  0  0  0  0  0  0
   10.3328    8.5914   10.9671 H   0  0  0  0  0  0  0  0  0  0  0  0
   10.5254    8.0159    9.3440 H   0  0  0  0  0  0  0  0  0  0  0  0
   10.0650    6.8894   10.6319 H   0  0  0  0  0  0  0  0  0  0  0  0
    8.2204    6.1813    9.8995 H   0  0  0  0  0  0  0  0  0  0  0  0
    5.8467    7.6285    8.7961 H   0  0  0  0  0  0  0  0  0  0  0  0
    6.0836    6.8965   10.3549 H   0  0  0  0  0  0  0  0  0  0  0  0
    6.2002    5.3840    7.6864 H   0  0  0  0  0  0  0  0  0  0  0  0
    6.2188    4.3123   10.5542 H   0  0  0  0  0  0  0  0  0  0  0  0
    7.5376    4.1891    9.3781 H   0  0  0  0  0  0  0  0  0  0  0  0
    6.0364    3.3291    9.0885 H   0  0  0  0  0  0  0  0  0  0  0  0
    3.9680    5.5075    9.7698 H   0  0  0  0  0  0  0  0  0  0  0  0
    3.9977    4.4775    8.3260 H   0  0  0  0  0  0  0  0  0  0  0  0
    3.9389    6.2357    8.1516 H   0  0  0  0  0  0  0  0  0  0  0  0
    6.5077    7.5258    6.8578 H   0  0  0  0  0  0  0  0  0  0  0  0
    7.1925    7.2824    5.2747 H   0  0  0  0  0  0  0  0  0  0  0  0
    7.2965    8.8923    6.0847 H   0  0  0  0  0  0  0  0  0  0  0  0
   10.1497    8.7381    6.7500 H   0  0  0  0  0  0  0  0  0  0  0  0
   11.8834    7.3384    5.5197 H   0  0  0  0  0  0  0  0  0  0  0  0
   11.6124    6.4720    8.3008 H   0  0  0  0  0  0  0  0  0  0  0  0
   12.0582    8.1163    7.7634 H   0  0  0  0  0  0  0  0  0  0  0  0
   13.0097    6.7306    7.2680 H   0  0  0  0  0  0  0  0  0  0  0  0
   10.8249    4.7735    6.5388 H   0  0  0  0  0  0  0  0  0  0  0  0
   11.7870    5.1499    5.1430 H   0  0  0  0  0  0  0  0  0  0  0  0
   10.0402    5.4109    5.0809 H   0  0  0  0  0  0  0  0  0  0  0  0
   12.7076    7.5917    3.7022 H   0  0  0  0  0  0  0  0  0  0  0  0
   11.7623    7.7641    2.2466 H   0  0  0  0  0  0  0  0  0  0  0  0
   11.1289    6.7454    3.5147 H   0  0  0  0  0  0  0  0  0  0  0  0
  1  2  1  0  0  0  0
  1 87  1  0  0  0  0
  1 88  1  0  0  0  0
  1 89  1  0  0  0  0
  2  3  1  0  0  0  0
  2 90  1  0  0  0  0
  2 91  1  0  0  0  0
  3  4  2  0  0  0  0
  3 92  1  0  0  0  0
  4  5  1  0  0  0  0
  4 93  1  0  0  0  0
  5  6  1  0  0  0  0
  5 94  1  0  0  0  0
  5 95  1  0  0  0  0
  6  7  1  0  0  0  0
  6  8  1  0  0  0  0
  6 96  1  6  0  0  0
  7 97  1  0  0  0  0
  7 98  1  0  0  0  0
  7 99  1  0  0  0  0
  8  9  1  0  0  0  0
  8100  1  0  0  0  0
  8101  1  0  0  0  0
  9 10  1  0  0  0  0
  9 85  1  0  0  0  0
  9102  1  6  0  0  0
 10 11  2  0  0  0  0
 10 12  1  0  0  0  0
 12 13  1  0  0  0  0
 12103  1  0  0  0  0
 13 14  1  0  0  0  0
 13 17  1  0  0  0  0
 13104  1  6  0  0  0
 14 15  1  0  0  0  0
 14 16  1  0  0  0  0
 14105  1  0  0  0  0
 15106  1  0  0  0  0
 15107  1  0  0  0  0
 15108  1  0  0  0  0
 16109  1  0  0  0  0
 16110  1  0  0  0  0
 16111  1  0  0  0  0
 17 18  2  0  0  0  0
 17 19  1  0  0  0  0
 19 20  1  0  0  0  0
 19 21  1  0  0  0  0
 20112  1  0  0  0  0
 20113  1  0  0  0  0
 20114  1  0  0  0  0
 21 22  1  0  0  0  0
 21115  1  0  0  0  0
 21116  1  0  0  0  0
 22 23  2  0  0  0  0
 22 24  1  0  0  0  0
 24 25  1  0  0  0  0
 24 26  1  0  0  0  0
 25117  1  0  0  0  0
 25118  1  0  0  0  0
 25119  1  0  0  0  0
 26 31  1  0  0  0  0
 26 27  1  0  0  0  0
 26120  1  1  0  0  0
 27 28  1  0  0  0  0
 27121  1  0  0  0  0
 27122  1  0  0  0  0
 28 29  1  0  0  0  0
 28 30  1  0  0  0  0
 28123  1  0  0  0  0
 29124  1  0  0  0  0
 29125  1  0  0  0  0
 29126  1  0  0  0  0
 30127  1  0  0  0  0
 30128  1  0  0  0  0
 30129  1  0  0  0  0
 31 32  2  0  0  0  0
 31 33  1  0  0  0  0
 33 34  1  0  0  0  0
 33130  1  0  0  0  0
 34 35  1  0  0  0  0
 34 38  1  0  0  0  0
 34131  1  6  0  0  0
 35 36  1  0  0  0  0
 35 37  1  0  0  0  0
 35132  1  0  0  0  0
 36133  1  0  0  0  0
 36134  1  0  0  0  0
 36135  1  0  0  0  0
 37136  1  0  0  0  0
 37137  1  0  0  0  0
 37138  1  0  0  0  0
 38 39  2  0  0  0  0
 38 40  1  0  0  0  0
 40 41  1  0  0  0  0
 40 42  1  0  0  0  0
 41139  1  0  0  0  0
 41140  1  0  0  0  0
 41141  1  0  0  0  0
 42 47  1  0  0  0  0
 42 43  1  0  0  0  0
 42142  1  6  0  0  0
 43 44  1  0  0  0  0
 43143  1  0  0  0  0
 43144  1  0  0  0  0
 44 45  1  0  0  0  0
 44 46  1  0  0  0  0
 44145  1  0  0  0  0
 45146  1  0  0  0  0
 45147  1  0  0  0  0
 45148  1  0  0  0  0
 46149  1  0  0  0  0
 46150  1  0  0  0  0
 46151  1  0  0  0  0
 47 48  2  0  0  0  0
 47 49  1  0  0  0  0
 49 50  1  0  0  0  0
 49152  1  0  0  0  0
 50 51  1  0  0  0  0
 50 52  1  0  0  0  0
 50153  1  6  0  0  0
 51154  1  0  0  0  0
 51155  1  0  0  0  0
 51156  1  0  0  0  0
 52 53  2  0  0  0  0
 52 54  1  0  0  0  0
 54 55  1  0  0  0  0
 54157  1  0  0  0  0
 55 57  1  0  0  0  0
 55 56  1  0  0  0  0
 55158  1  1  0  0  0
 56159  1  0  0  0  0
 56160  1  0  0  0  0
 56161  1  0  0  0  0
 57 58  2  0  0  0  0
 57 59  1  0  0  0  0
 59 60  1  0  0  0  0
 59 61  1  0  0  0  0
 60162  1  0  0  0  0
 60163  1  0  0  0  0
 60164  1  0  0  0  0
 61 62  1  0  0  0  0
 61 66  1  0  0  0  0
 61165  1  6  0  0  0
 62 63  1  0  0  0  0
 62166  1  0  0  0  0
 62167  1  0  0  0  0
 63 64  1  0  0  0  0
 63 65  1  0  0  0  0
 63168  1  0  0  0  0
 64169  1  0  0  0  0
 64170  1  0  0  0  0
 64171  1  0  0  0  0
 65172  1  0  0  0  0
 65173  1  0  0  0  0
 65174  1  0  0  0  0
 66 67  2  0  0  0  0
 66 68  1  0  0  0  0
 68 69  1  0  0  0  0
 68 70  1  0  0  0  0
 69175  1  0  0  0  0
 69176  1  0  0  0  0
 69177  1  0  0  0  0
 70 71  1  0  0  0  0
 70 75  1  0  0  0  0
 70178  1  1  0  0  0
 71 72  1  0  0  0  0
 71179  1  0  0  0  0
 71180  1  0  0  0  0
 72 73  1  0  0  0  0
 72 74  1  0  0  0  0
 72181  1  0  0  0  0
 73182  1  0  0  0  0
 73183  1  0  0  0  0
 73184  1  0  0  0  0
 74185  1  0  0  0  0
 74186  1  0  0  0  0
 74187  1  0  0  0  0
 75 76  2  0  0  0  0
 75 77  1  0  0  0  0
 77 78  1  0  0  0  0
 77 79  1  0  0  0  0
 78188  1  0  0  0  0
 78189  1  0  0  0  0
 78190  1  0  0  0  0
 79 80  1  0  0  0  0
 79 83  1  0  0  0  0
 79191  1  1  0  0  0
 80 81  1  0  0  0  0
 80 82  1  0  0  0  0
 80192  1  0  0  0  0
 81193  1  0  0  0  0
 81194  1  0  0  0  0
 81195  1  0  0  0  0
 82196  1  0  0  0  0
 82197  1  0  0  0  0
 82198  1  0  0  0  0
 83 84  2  0  0  0  0
 83 85  1  0  0  0  0
 85 86  1  0  0  0  0
 86199  1  0  0  0  0
 86200  1  0  0  0  0
 86201  1  0  0  0  0
M  END
>  <Energy>
660.649

$$$$