28
 OpenBabel03292021433D

194194  0  0  1  0  0  0  0  0999 V2000
    6.3726   -5.8197   -0.5305 C   0  0  0  0  0  0  0  0  0  0  0  0
    7.1945   -4.7468    0.1769 C   0  0  0  0  0  0  0  0  0  0  0  0
    6.9011   -3.4252    0.2434 C   0  0  0  0  0  0  0  0  0  0  0  0
    7.5141   -2.2751    1.1446 C   0  0  0  0  0  0  0  0  0  0  0  0
    8.3832   -0.7712    1.1856 C   0  0  1  0  0  0  0  0  0  0  0  0
    7.4982    0.0124    2.2372 C   0  0  0  0  0  0  0  0  0  0  0  0
   10.1585   -0.1076    1.1789 C   0  0  1  0  0  0  0  0  0  0  0  0
   10.0879    1.0202    2.1189 O   0  0  0  0  0  0  0  0  0  0  0  0
   12.0397   -0.8517    0.6910 C   0  0  1  0  0  0  0  0  0  0  0  0
   13.9002   -0.3025    0.0263 C   0  0  0  0  0  0  0  0  0  0  0  0
   14.7297   -1.2576    0.2900 O   0  0  0  0  0  0  0  0  0  0  0  0
   14.8816    0.8434   -0.8831 N   0  0  0  0  0  0  0  0  0  0  0  0
   16.5334    1.3079   -1.8464 C   0  0  1  0  0  0  0  0  0  0  0  0
   18.3611    1.0253   -1.9919 C   0  0  1  0  0  0  0  0  0  0  0  0
   19.7542    0.4639   -1.5588 C   0  0  0  0  0  0  0  0  0  0  0  0
   18.6111    0.6736   -3.4215 O   0  0  0  0  0  0  0  0  0  0  0  0
   16.8948    2.7218   -3.0602 C   0  0  0  0  0  0  0  0  0  0  0  0
   16.9921    2.3025   -4.2111 O   0  0  0  0  0  0  0  0  0  0  0  0
   17.6621    3.9728   -3.1633 N   0  0  0  0  0  0  0  0  0  0  0  0
   19.1660    4.0775   -3.2204 C   0  0  0  0  0  0  0  0  0  0  0  0
   17.1942    4.7982   -4.3849 C   0  0  0  0  0  0  0  0  0  0  0  0
   16.6865    4.2953   -5.8122 C   0  0  0  0  0  0  0  0  0  0  0  0
   15.4714    4.5025   -5.9605 O   0  0  0  0  0  0  0  0  0  0  0  0
   17.4477    3.7288   -6.8617 N   0  0  0  0  0  0  0  0  0  0  0  0
   18.8909    3.7918   -6.9551 C   0  0  0  0  0  0  0  0  0  0  0  0
   16.7424    3.0497   -8.0420 C   0  0  2  0  0  0  0  0  0  0  0  0
   16.9407    1.4727   -8.2135 C   0  0  0  0  0  0  0  0  0  0  0  0
   16.0611    0.6077   -7.3210 C   0  0  0  0  0  0  0  0  0  0  0  0
   15.9552   -0.8837   -7.5364 C   0  0  0  0  0  0  0  0  0  0  0  0
   16.5337    0.7898   -5.9298 C   0  0  0  0  0  0  0  0  0  0  0  0
   17.1049    3.5829   -9.4675 C   0  0  0  0  0  0  0  0  0  0  0  0
   18.1974    3.3077   -9.9847 O   0  0  0  0  0  0  0  0  0  0  0  0
   16.2675    4.3371  -10.2357 N   0  0  0  0  0  0  0  0  0  0  0  0
   14.9408    4.9258   -9.9691 C   0  0  2  0  0  0  0  0  0  0  0  0
   14.9682    5.8236   -8.7210 C   0  0  0  0  0  0  0  0  0  0  0  0
   13.6191    6.4063   -8.3215 C   0  0  0  0  0  0  0  0  0  0  0  0
   16.0463    6.9130   -8.7776 C   0  0  0  0  0  0  0  0  0  0  0  0
   13.9097    3.7554   -9.9068 C   0  0  0  0  0  0  0  0  0  0  0  0
   14.1584    2.7793   -9.1926 O   0  0  0  0  0  0  0  0  0  0  0  0
   12.7346    3.7521  -10.6380 N   0  0  0  0  0  0  0  0  0  0  0  0
   12.3481    4.7622  -11.6132 C   0  0  0  0  0  0  0  0  0  0  0  0
   11.8479    2.5557  -10.4744 C   0  0  2  0  0  0  0  0  0  0  0  0
   11.8410    1.6226  -11.7022 C   0  0  0  0  0  0  0  0  0  0  0  0
   13.2012    1.0289  -12.1263 C   0  0  0  0  0  0  0  0  0  0  0  0
   13.8553    0.0974  -11.1000 C   0  0  0  0  0  0  0  0  0  0  0  0
   12.9976    0.2405  -13.4239 C   0  0  0  0  0  0  0  0  0  0  0  0
   10.3774    2.9442  -10.1267 C   0  0  0  0  0  0  0  0  0  0  0  0
    9.7238    3.7108  -10.8312 O   0  0  0  0  0  0  0  0  0  0  0  0
    9.7346    2.4102   -9.0471 N   0  0  0  0  0  0  0  0  0  0  0  0
   10.3045    1.6438   -7.9596 C   0  0  1  0  0  0  0  0  0  0  0  0
    9.7001    2.0921   -6.6408 C   0  0  0  0  0  0  0  0  0  0  0  0
   10.4753    0.1126   -8.3707 C   0  0  0  0  0  0  0  0  0  0  0  0
   11.0338   -0.1635   -9.4426 O   0  0  0  0  0  0  0  0  0  0  0  0
   10.2354   -0.9952   -7.6247 N   0  0  0  0  0  0  0  0  0  0  0  0
    9.4170   -1.2815   -6.4530 C   0  0  2  0  0  0  0  0  0  0  0  0
    8.0032   -0.7605   -6.6681 C   0  0  0  0  0  0  0  0  0  0  0  0
   10.1276   -0.8773   -5.1327 C   0  0  0  0  0  0  0  0  0  0  0  0
    9.6565   -0.0087   -4.3968 O   0  0  0  0  0  0  0  0  0  0  0  0
   11.3465   -1.5115   -4.8385 N   0  0  0  0  0  0  0  0  0  0  0  0
   11.3611   -2.9728   -4.7002 C   0  0  0  0  0  0  0  0  0  0  0  0
   12.4031   -0.7867   -4.0886 C   0  0  1  0  0  0  0  0  0  0  0  0
   12.6695    0.6103   -4.4449 C   0  0  0  0  0  0  0  0  0  0  0  0
   13.5114    0.8922   -5.6119 C   0  0  0  0  0  0  0  0  0  0  0  0
   12.8486    0.3242   -6.8067 C   0  0  0  0  0  0  0  0  0  0  0  0
   13.6847    2.4024   -5.5462 C   0  0  0  0  0  0  0  0  0  0  0  0
   12.3648   -0.5462   -2.6084 C   0  0  0  0  0  0  0  0  0  0  0  0
   12.7255   -1.5201   -1.9420 O   0  0  0  0  0  0  0  0  0  0  0  0
   11.8946    0.6855   -2.0523 N   0  0  0  0  0  0  0  0  0  0  0  0
   11.8843    2.1567   -2.3985 C   0  0  0  0  0  0  0  0  0  0  0  0
   11.1365    0.5163   -0.8969 C   0  0  1  0  0  0  0  0  0  0  0  0
   10.2248   -1.0658   -1.1103 C   0  0  0  0  0  0  0  0  0  0  0  0
    9.2813   -1.7479   -2.1050 C   0  0  0  0  0  0  0  0  0  0  0  0
    9.2867   -3.2668   -1.7066 C   0  0  0  0  0  0  0  0  0  0  0  0
    7.8648   -1.2303   -2.2317 C   0  0  0  0  0  0  0  0  0  0  0  0
   11.9696    1.4753    0.5959 C   0  0  0  0  0  0  0  0  0  0  0  0
   12.0435    2.7165    0.4464 O   0  0  0  0  0  0  0  0  0  0  0  0
   12.5776    1.0604    1.9864 N   0  0  0  0  0  0  0  0  0  0  0  0
   13.1423   -0.2845    2.8884 C   0  0  1  0  0  0  0  0  0  0  0  0
   13.2727   -1.1577    4.3335 C   0  0  0  0  0  0  0  0  0  0  0  0
   13.0935   -2.7790    4.1382 C   0  0  0  0  0  0  0  0  0  0  0  0
   14.6099   -1.0890    4.9967 C   0  0  0  0  0  0  0  0  0  0  0  0
   11.7950   -0.8644    2.9315 C   0  0  0  0  0  0  0  0  0  0  0  0
   10.8813   -0.6112    3.7205 O   0  0  0  0  0  0  0  0  0  0  0  0
   11.7816   -1.7649    1.8871 N   0  0  0  0  0  0  0  0  0  0  0  0
   10.5928   -2.6385    1.9879 C   0  0  0  0  0  0  0  0  0  0  0  0
    7.0223   -6.6242   -0.9016 H   0  0  0  0  0  0  0  0  0  0  0  0
    5.8042   -5.4507   -1.3917 H   0  0  0  0  0  0  0  0  0  0  0  0
    5.6672   -6.2917    0.1659 H   0  0  0  0  0  0  0  0  0  0  0  0
    8.0935   -5.1303    0.6487 H   0  0  0  0  0  0  0  0  0  0  0  0
    5.9369   -3.1738   -0.2212 H   0  0  0  0  0  0  0  0  0  0  0  0
    7.4735   -2.6483    2.1749 H   0  0  0  0  0  0  0  0  0  0  0  0
    6.5362   -1.7611    1.0520 H   0  0  0  0  0  0  0  0  0  0  0  0
    8.0214   -0.2928    0.2623 H   0  0  0  0  0  0  0  0  0  0  0  0
    7.6595   -0.3709    3.2483 H   0  0  0  0  0  0  0  0  0  0  0  0
    6.4227   -0.1158    2.0284 H   0  0  0  0  0  0  0  0  0  0  0  0
    7.6420    1.0921    2.1976 H   0  0  0  0  0  0  0  0  0  0  0  0
    9.8057    0.5429    0.4234 H   0  0  0  0  0  0  0  0  0  0  0  0
    9.6565    0.7186    2.9396 H   0  0  0  0  0  0  0  0  0  0  0  0
   11.9820   -1.6801    0.0676 H   0  0  0  0  0  0  0  0  0  0  0  0
   14.2174    1.5210   -1.1474 H   0  0  0  0  0  0  0  0  0  0  0  0
   16.2674    0.5274   -2.6283 H   0  0  0  0  0  0  0  0  0  0  0  0
   18.6552    2.0647   -1.8577 H   0  0  0  0  0  0  0  0  0  0  0  0
   20.0910   -0.4374   -2.1123 H   0  0  0  0  0  0  0  0  0  0  0  0
   20.0503    0.4315   -0.5182 H   0  0  0  0  0  0  0  0  0  0  0  0
   20.5284    1.1741   -2.0016 H   0  0  0  0  0  0  0  0  0  0  0  0
   19.1220    1.3969   -3.8553 H   0  0  0  0  0  0  0  0  0  0  0  0
   19.6133    3.3859   -3.9460 H   0  0  0  0  0  0  0  0  0  0  0  0
   19.6379    3.9963   -2.2447 H   0  0  0  0  0  0  0  0  0  0  0  0
   19.4710    5.0828   -3.5866 H   0  0  0  0  0  0  0  0  0  0  0  0
   17.9008    5.6166   -4.6114 H   0  0  0  0  0  0  0  0  0  0  0  0
   16.3381    5.3425   -3.9657 H   0  0  0  0  0  0  0  0  0  0  0  0
   19.3218    4.4311   -6.1881 H   0  0  0  0  0  0  0  0  0  0  0  0
   19.1772    4.2112   -7.9273 H   0  0  0  0  0  0  0  0  0  0  0  0
   19.2911    2.7786   -6.8823 H   0  0  0  0  0  0  0  0  0  0  0  0
   15.6949    3.2134   -7.8560 H   0  0  0  0  0  0  0  0  0  0  0  0
   16.6609    1.1931   -9.2363 H   0  0  0  0  0  0  0  0  0  0  0  0
   17.9912    1.2055   -8.0768 H   0  0  0  0  0  0  0  0  0  0  0  0
   15.0728    1.0279   -7.4516 H   0  0  0  0  0  0  0  0  0  0  0  0
   16.9346   -1.3556   -7.4555 H   0  0  0  0  0  0  0  0  0  0  0  0
   15.4859   -1.1134   -8.4914 H   0  0  0  0  0  0  0  0  0  0  0  0
   15.3215   -1.3316   -6.7531 H   0  0  0  0  0  0  0  0  0  0  0  0
   17.6200    0.7739   -5.8633 H   0  0  0  0  0  0  0  0  0  0  0  0
   16.1746    0.1111   -5.1483 H   0  0  0  0  0  0  0  0  0  0  0  0
   16.1016    1.7621   -5.7345 H   0  0  0  0  0  0  0  0  0  0  0  0
   16.6662    4.5169  -11.1490 H   0  0  0  0  0  0  0  0  0  0  0  0
   14.7610    5.5580  -10.8370 H   0  0  0  0  0  0  0  0  0  0  0  0
   15.2479    5.1943   -7.9001 H   0  0  0  0  0  0  0  0  0  0  0  0
   13.2272    7.0832   -9.0836 H   0  0  0  0  0  0  0  0  0  0  0  0
   13.7158    6.9640   -7.3814 H   0  0  0  0  0  0  0  0  0  0  0  0
   12.8880    5.6118   -8.1402 H   0  0  0  0  0  0  0  0  0  0  0  0
   15.8416    7.6409   -9.5671 H   0  0  0  0  0  0  0  0  0  0  0  0
   17.0407    6.4876   -8.9527 H   0  0  0  0  0  0  0  0  0  0  0  0
   16.1038    7.4468   -7.8216 H   0  0  0  0  0  0  0  0  0  0  0  0
   13.0929    5.5433  -11.7400 H   0  0  0  0  0  0  0  0  0  0  0  0
   11.4291    5.2511  -11.2896 H   0  0  0  0  0  0  0  0  0  0  0  0
   12.2025    4.2822  -12.5833 H   0  0  0  0  0  0  0  0  0  0  0  0
   12.2314    1.9654   -9.6486 H   0  0  0  0  0  0  0  0  0  0  0  0
   11.1376    0.8005  -11.5299 H   0  0  0  0  0  0  0  0  0  0  0  0
   11.4119    2.1687  -12.5508 H   0  0  0  0  0  0  0  0  0  0  0  0
   13.8946    1.8526  -12.3322 H   0  0  0  0  0  0  0  0  0  0  0  0
   13.2556   -0.8021  -10.9269 H   0  0  0  0  0  0  0  0  0  0  0  0
   14.0209    0.5774  -10.1360 H   0  0  0  0  0  0  0  0  0  0  0  0
   14.8374   -0.2305  -11.4631 H   0  0  0  0  0  0  0  0  0  0  0  0
   12.3425   -0.6231  -13.2582 H   0  0  0  0  0  0  0  0  0  0  0  0
   13.9522   -0.1283  -13.8111 H   0  0  0  0  0  0  0  0  0  0  0  0
   12.5392    0.8684  -14.1941 H   0  0  0  0  0  0  0  0  0  0  0  0
    8.7995    2.7754   -8.9272 H   0  0  0  0  0  0  0  0  0  0  0  0
   11.3291    2.0277   -7.8843 H   0  0  0  0  0  0  0  0  0  0  0  0
    8.6115    2.1497   -6.6517 H   0  0  0  0  0  0  0  0  0  0  0  0
   10.0758    3.0843   -6.3588 H   0  0  0  0  0  0  0  0  0  0  0  0
   10.0109    1.4600   -5.8320 H   0  0  0  0  0  0  0  0  0  0  0  0
   10.6467   -1.8070   -8.0730 H   0  0  0  0  0  0  0  0  0  0  0  0
    9.3212   -2.3725   -6.4249 H   0  0  0  0  0  0  0  0  0  0  0  0
    7.9830    0.1730   -7.2335 H   0  0  0  0  0  0  0  0  0  0  0  0
    7.4602   -0.6143   -5.7334 H   0  0  0  0  0  0  0  0  0  0  0  0
    7.4446   -1.4744   -7.2860 H   0  0  0  0  0  0  0  0  0  0  0  0
   10.7786   -3.4657   -5.4794 H   0  0  0  0  0  0  0  0  0  0  0  0
   10.9103   -3.2582   -3.7522 H   0  0  0  0  0  0  0  0  0  0  0  0
   12.3809   -3.3616   -4.7040 H   0  0  0  0  0  0  0  0  0  0  0  0
   13.3155   -1.3770   -4.2556 H   0  0  0  0  0  0  0  0  0  0  0  0
   13.3657    0.9981   -3.6896 H   0  0  0  0  0  0  0  0  0  0  0  0
   11.7385    1.1490   -4.5418 H   0  0  0  0  0  0  0  0  0  0  0  0
   14.3992    0.3282   -5.4155 H   0  0  0  0  0  0  0  0  0  0  0  0
   11.8212    0.5700   -6.6274 H   0  0  0  0  0  0  0  0  0  0  0  0
   12.9188   -0.7649   -6.8254 H   0  0  0  0  0  0  0  0  0  0  0  0
   13.1715    0.7310   -7.7507 H   0  0  0  0  0  0  0  0  0  0  0  0
   12.7405    2.9379   -5.3982 H   0  0  0  0  0  0  0  0  0  0  0  0
   14.1300    2.7805   -6.4494 H   0  0  0  0  0  0  0  0  0  0  0  0
   14.3095    2.6612   -4.6727 H   0  0  0  0  0  0  0  0  0  0  0  0
   12.2407    2.5033   -3.3500 H   0  0  0  0  0  0  0  0  0  0  0  0
   12.5439    2.6606   -1.6936 H   0  0  0  0  0  0  0  0  0  0  0  0
   10.8714    2.5646   -2.2960 H   0  0  0  0  0  0  0  0  0  0  0  0
   10.2719    1.1843   -1.0832 H   0  0  0  0  0  0  0  0  0  0  0  0
    9.7414   -1.3835   -0.2231 H   0  0  0  0  0  0  0  0  0  0  0  0
   10.9680   -1.8372   -1.1624 H   0  0  0  0  0  0  0  0  0  0  0  0
    9.7282   -1.7564   -3.0664 H   0  0  0  0  0  0  0  0  0  0  0  0
    9.1018   -3.3801   -0.6452 H   0  0  0  0  0  0  0  0  0  0  0  0
   10.2772   -3.7264   -1.8165 H   0  0  0  0  0  0  0  0  0  0  0  0
    8.5745   -3.8684   -2.2744 H   0  0  0  0  0  0  0  0  0  0  0  0
    7.3149   -1.2164   -1.2975 H   0  0  0  0  0  0  0  0  0  0  0  0
    7.2881   -1.8801   -2.8996 H   0  0  0  0  0  0  0  0  0  0  0  0
    7.8554   -0.2166   -2.6355 H   0  0  0  0  0  0  0  0  0  0  0  0
   12.7356    1.9192    2.5031 H   0  0  0  0  0  0  0  0  0  0  0  0
   13.8783   -0.7638    2.2601 H   0  0  0  0  0  0  0  0  0  0  0  0
   12.5274   -0.8767    5.0954 H   0  0  0  0  0  0  0  0  0  0  0  0
   13.6754   -3.1624    3.2875 H   0  0  0  0  0  0  0  0  0  0  0  0
   12.0577   -3.0936    4.0065 H   0  0  0  0  0  0  0  0  0  0  0  0
   13.3771   -3.3522    5.0270 H   0  0  0  0  0  0  0  0  0  0  0  0
   15.3785   -1.5015    4.3389 H   0  0  0  0  0  0  0  0  0  0  0  0
   14.5838   -1.7059    5.9063 H   0  0  0  0  0  0  0  0  0  0  0  0
   14.8253   -0.0611    5.2792 H   0  0  0  0  0  0  0  0  0  0  0  0
   10.7058   -3.4146    2.7435 H   0  0  0  0  0  0  0  0  0  0  0  0
   10.3591   -3.1121    1.0425 H   0  0  0  0  0  0  0  0  0  0  0  0
    9.7398   -2.0946    2.3951 H   0  0  0  0  0  0  0  0  0  0  0  0
  1  2  1  0  0  0  0
  1 86  1  0  0  0  0
  1 87  1  0  0  0  0
  1 88  1  0  0  0  0
  2  3  2  0  0  0  0
  2 89  1  0  0  0  0
  3  4  1  0  0  0  0
  3 90  1  0  0  0  0
  4  5  1  0  0  0  0
  4 91  1  0  0  0  0
  4 92  1  0  0  0  0
  5  6  1  0  0  0  0
  5  7  1  0  0  0  0
  5 93  1  6  0  0  0
  6 94  1  0  0  0  0
  6 95  1  0  0  0  0
  6 96  1  0  0  0  0
  7  8  1  0  0  0  0
  7  9  1  0  0  0  0
  7 97  1  6  0  0  0
  8 98  1  0  0  0  0
  9 10  1  0  0  0  0
  9 84  1  0  0  0  0
  9 99  1  6  0  0  0
 10 11  2  0  0  0  0
 10 12  1  0  0  0  0
 12 13  1  0  0  0  0
 12100  1  0  0  0  0
 13 14  1  0  0  0  0
 13 17  1  0  0  0  0
 13101  1  1  0  0  0
 14 15  1  0  0  0  0
 14 16  1  0  0  0  0
 14102  1  6  0  0  0
 15103  1  0  0  0  0
 15104  1  0  0  0  0
 15105  1  0  0  0  0
 16106  1  0  0  0  0
 17 18  2  0  0  0  0
 17 19  1  0  0  0  0
 19 20  1  0  0  0  0
 19 21  1  0  0  0  0
 20107  1  0  0  0  0
 20108  1  0  0  0  0
 20109  1  0  0  0  0
 21 22  1  0  0  0  0
 21110  1  0  0  0  0
 21111  1  0  0  0  0
 22 23  2  0  0  0  0
 22 24  1  0  0  0  0
 24 25  1  0  0  0  0
 24 26  1  0  0  0  0
 25112  1  0  0  0  0
 25113  1  0  0  0  0
 25114  1  0  0  0  0
 26 31  1  0  0  0  0
 26 27  1  0  0  0  0
 26115  1  1  0  0  0
 27 28  1  0  0  0  0
 27116  1  0  0  0  0
 27117  1  0  0  0  0
 28 29  1  0  0  0  0
 28 30  1  0  0  0  0
 28118  1  0  0  0  0
 29119  1  0  0  0  0
 29120  1  0  0  0  0
 29121  1  0  0  0  0
 30122  1  0  0  0  0
 30123  1  0  0  0  0
 30124  1  0  0  0  0
 31 32  2  0  0  0  0
 31 33  1  0  0  0  0
 33 34  1  0  0  0  0
 33125  1  0  0  0  0
 34 38  1  0  0  0  0
 34 35  1  0  0  0  0
 34126  1  6  0  0  0
 35 36  1  0  0  0  0
 35 37  1  0  0  0  0
 35127  1  0  0  0  0
 36128  1  0  0  0  0
 36129  1  0  0  0  0
 36130  1  0  0  0  0
 37131  1  0  0  0  0
 37132  1  0  0  0  0
 37133  1  0  0  0  0
 38 39  2  0  0  0  0
 38 40  1  0  0  0  0
 40 41  1  0  0  0  0
 40 42  1  0  0  0  0
 41134  1  0  0  0  0
 41135  1  0  0  0  0
 41136  1  0  0  0  0
 42 47  1  0  0  0  0
 42 43  1  0  0  0  0
 42137  1  1  0  0  0
 43 44  1  0  0  0  0
 43138  1  0  0  0  0
 43139  1  0  0  0  0
 44 45  1  0  0  0  0
 44 46  1  0  0  0  0
 44140  1  0  0  0  0
 45141  1  0  0  0  0
 45142  1  0  0  0  0
 45143  1  0  0  0  0
 46144  1  0  0  0  0
 46145  1  0  0  0  0
 46146  1  0  0  0  0
 47 48  2  0  0  0  0
 47 49  1  0  0  0  0
 49 50  1  0  0  0  0
 49147  1  0  0  0  0
 50 51  1  0  0  0  0
 50 52  1  0  0  0  0
 50148  1  1  0  0  0
 51149  1  0  0  0  0
 51150  1  0  0  0  0
 51151  1  0  0  0  0
 52 53  2  0  0  0  0
 52 54  1  0  0  0  0
 54 55  1  0  0  0  0
 54152  1  0  0  0  0
 55 57  1  0  0  0  0
 55 56  1  0  0  0  0
 55153  1  1  0  0  0
 56154  1  0  0  0  0
 56155  1  0  0  0  0
 56156  1  0  0  0  0
 57 58  2  0  0  0  0
 57 59  1  0  0  0  0
 59 60  1  0  0  0  0
 59 61  1  0  0  0  0
 60157  1  0  0  0  0
 60158  1  0  0  0  0
 60159  1  0  0  0  0
 61 62  1  0  0  0  0
 61 66  1  0  0  0  0
 61160  1  6  0  0  0
 62 63  1  0  0  0  0
 62161  1  0  0  0  0
 62162  1  0  0  0  0
 63 64  1  0  0  0  0
 63 65  1  0  0  0  0
 63163  1  0  0  0  0
 64164  1  0  0  0  0
 64165  1  0  0  0  0
 64166  1  0  0  0  0
 65167  1  0  0  0  0
 65168  1  0  0  0  0
 65169  1  0  0  0  0
 66 67  2  0  0  0  0
 66 68  1  0  0  0  0
 68 69  1  0  0  0  0
 68 70  1  0  0  0  0
 69170  1  0  0  0  0
 69171  1  0  0  0  0
 69172  1  0  0  0  0
 70 71  1  0  0  0  0
 70 75  1  0  0  0  0
 70173  1  6  0  0  0
 71 72  1  0  0  0  0
 71174  1  0  0  0  0
 71175  1  0  0  0  0
 72 73  1  0  0  0  0
 72 74  1  0  0  0  0
 72176  1  0  0  0  0
 73177  1  0  0  0  0
 73178  1  0  0  0  0
 73179  1  0  0  0  0
 74180  1  0  0  0  0
 74181  1  0  0  0  0
 74182  1  0  0  0  0
 75 76  2  0  0  0  0
 75 77  1  0  0  0  0
 77 78  1  0  0  0  0
 77183  1  0  0  0  0
 78 79  1  0  0  0  0
 78 82  1  0  0  0  0
 78184  1  6  0  0  0
 79 80  1  0  0  0  0
 79 81  1  0  0  0  0
 79185  1  0  0  0  0
 80186  1  0  0  0  0
 80187  1  0  0  0  0
 80188  1  0  0  0  0
 81189  1  0  0  0  0
 81190  1  0  0  0  0
 81191  1  0  0  0  0
 82 83  2  0  0  0  0
 82 84  1  0  0  0  0
 84 85  1  0  0  0  0
 85192  1  0  0  0  0
 85193  1  0  0  0  0
 85194  1  0  0  0  0
M  END
>  <Energy>
1733.82

$$$$