44285863
  -OEChem-03242010103D

 82 83  0     1  0  0  0  0  0999 V2000
   -0.6501   -3.3422    0.0455 O   0  0  0  0  0  0  0  0  0  0  0  0
    1.5522    0.7411    0.9163 O   0  0  0  0  0  0  0  0  0  0  0  0
   -0.3511    2.3963   -0.2753 O   0  0  0  0  0  0  0  0  0  0  0  0
   -2.0372    0.2512   -1.8698 O   0  0  0  0  0  0  0  0  0  0  0  0
    1.5689   -0.1813   -1.2012 O   0  0  0  0  0  0  0  0  0  0  0  0
   -0.6459    4.3663    0.8676 O   0  0  0  0  0  0  0  0  0  0  0  0
   -0.1077   -3.7477   -2.2510 O   0  0  0  0  0  0  0  0  0  0  0  0
   -1.9709    0.1417    0.4521 N   0  0  0  0  0  0  0  0  0  0  0  0
   -1.9169   -1.3371    0.4959 C   0  0  2  0  0  0  0  0  0  0  0  0
   -0.5994   -1.9166   -0.0798 C   0  0  1  0  0  0  0  0  0  0  0  0
   -3.1633   -1.9635   -0.1446 C   0  0  0  0  0  0  0  0  0  0  0  0
    0.6580   -1.4274    0.6591 C   0  0  0  0  0  0  0  0  0  0  0  0
   -1.7143    2.3283   -0.7304 C   0  0  2  0  0  0  0  0  0  0  0  0
    2.1766    1.9680    0.4629 C   0  0  2  0  0  0  0  0  0  0  0  0
   -1.9401    0.8202   -0.7788 C   0  0  0  0  0  0  0  0  0  0  0  0
   -1.8022    2.9859   -2.0996 C   0  0  0  0  0  0  0  0  0  0  0  0
    3.6311    1.9324    0.9167 C   0  0  0  0  0  0  0  0  0  0  0  0
    4.3651    0.7291    0.3275 C   0  0  0  0  0  0  0  0  0  0  0  0
    1.4319    3.1558    1.0927 C   0  0  0  0  0  0  0  0  0  0  0  0
   -4.4180   -1.4832    0.5231 C   0  0  0  0  0  0  0  0  0  0  0  0
   -2.0395    0.7962    1.7605 C   0  0  0  0  0  0  0  0  0  0  0  0
    1.3024   -0.2326   -0.0073 C   0  0  0  0  0  0  0  0  0  0  0  0
    5.8366    0.6538    0.7446 C   0  0  0  0  0  0  0  0  0  0  0  0
    6.5562   -0.5893    0.2166 C   0  0  0  0  0  0  0  0  0  0  0  0
    0.0359    3.4007    0.5474 C   0  0  0  0  0  0  0  0  0  0  0  0
   -2.0990    4.4779   -1.9619 C   0  0  0  0  0  0  0  0  0  0  0  0
   -0.5112    2.7665   -2.8856 C   0  0  0  0  0  0  0  0  0  0  0  0
    8.0137   -0.6249    0.6823 C   0  0  0  0  0  0  0  0  0  0  0  0
    0.2163   -3.9882   -0.8819 C   0  0  0  0  0  0  0  0  0  0  0  0
   -4.9386   -2.1809    1.6130 C   0  0  0  0  0  0  0  0  0  0  0  0
   -5.0637   -0.3393    0.0543 C   0  0  0  0  0  0  0  0  0  0  0  0
    8.7247   -1.8847    0.1884 C   0  0  0  0  0  0  0  0  0  0  0  0
   -6.1052   -1.7346    2.2340 C   0  0  0  0  0  0  0  0  0  0  0  0
   -6.2302    0.1071    0.6752 C   0  0  0  0  0  0  0  0  0  0  0  0
   -6.7510   -0.5906    1.7652 C   0  0  0  0  0  0  0  0  0  0  0  0
   10.1821   -1.9075    0.6207 C   0  0  0  0  0  0  0  0  0  0  0  0
   -1.1963   -4.5470   -2.6945 C   0  0  0  0  0  0  0  0  0  0  0  0
   -1.9387   -1.6299    1.5565 H   0  0  0  0  0  0  0  0  0  0  0  0
   -0.5466   -1.6497   -1.1410 H   0  0  0  0  0  0  0  0  0  0  0  0
   -3.1253   -3.0573   -0.0617 H   0  0  0  0  0  0  0  0  0  0  0  0
   -3.2171   -1.7664   -1.2211 H   0  0  0  0  0  0  0  0  0  0  0  0
    1.4367   -2.1920    0.7420 H   0  0  0  0  0  0  0  0  0  0  0  0
    0.4034   -1.1756    1.6957 H   0  0  0  0  0  0  0  0  0  0  0  0
   -2.4237    2.7873   -0.0367 H   0  0  0  0  0  0  0  0  0  0  0  0
    2.1359    2.0523   -0.6303 H   0  0  0  0  0  0  0  0  0  0  0  0
   -2.6387    2.5509   -2.6614 H   0  0  0  0  0  0  0  0  0  0  0  0
    4.1395    2.8573    0.6199 H   0  0  0  0  0  0  0  0  0  0  0  0
    3.6780    1.8675    2.0111 H   0  0  0  0  0  0  0  0  0  0  0  0
    3.8869   -0.2011    0.6529 H   0  0  0  0  0  0  0  0  0  0  0  0
    4.3051    0.7596   -0.7672 H   0  0  0  0  0  0  0  0  0  0  0  0
    2.0021    4.0755    0.9199 H   0  0  0  0  0  0  0  0  0  0  0  0
    1.3225    2.9931    2.1712 H   0  0  0  0  0  0  0  0  0  0  0  0
   -2.8108    0.3117    2.3668 H   0  0  0  0  0  0  0  0  0  0  0  0
   -2.2846    1.8544    1.7044 H   0  0  0  0  0  0  0  0  0  0  0  0
   -1.0716    0.6840    2.2562 H   0  0  0  0  0  0  0  0  0  0  0  0
    6.3558    1.5527    0.3898 H   0  0  0  0  0  0  0  0  0  0  0  0
    5.8975    0.6652    1.8402 H   0  0  0  0  0  0  0  0  0  0  0  0
    6.5167   -0.5984   -0.8792 H   0  0  0  0  0  0  0  0  0  0  0  0
    6.0358   -1.4888    0.5671 H   0  0  0  0  0  0  0  0  0  0  0  0
   -1.2635    5.0256   -1.5169 H   0  0  0  0  0  0  0  0  0  0  0  0
   -2.9924    4.6514   -1.3530 H   0  0  0  0  0  0  0  0  0  0  0  0
   -2.2833    4.9182   -2.9483 H   0  0  0  0  0  0  0  0  0  0  0  0
    0.3344    3.3223   -2.4658 H   0  0  0  0  0  0  0  0  0  0  0  0
   -0.6402    3.1231   -3.9142 H   0  0  0  0  0  0  0  0  0  0  0  0
   -0.2324    1.7103   -2.9462 H   0  0  0  0  0  0  0  0  0  0  0  0
    8.0522   -0.5893    1.7779 H   0  0  0  0  0  0  0  0  0  0  0  0
    8.5380    0.2642    0.3116 H   0  0  0  0  0  0  0  0  0  0  0  0
    1.2522   -3.6716   -0.7306 H   0  0  0  0  0  0  0  0  0  0  0  0
    0.1925   -5.0644   -0.6746 H   0  0  0  0  0  0  0  0  0  0  0  0
   -4.4435   -3.0721    1.9894 H   0  0  0  0  0  0  0  0  0  0  0  0
   -4.6862    0.2073   -0.8045 H   0  0  0  0  0  0  0  0  0  0  0  0
    8.6745   -1.9361   -0.9055 H   0  0  0  0  0  0  0  0  0  0  0  0
    8.2186   -2.7753    0.5787 H   0  0  0  0  0  0  0  0  0  0  0  0
   -6.5104   -2.2774    3.0829 H   0  0  0  0  0  0  0  0  0  0  0  0
   -6.7353    0.9955    0.3076 H   0  0  0  0  0  0  0  0  0  0  0  0
   -7.6596   -0.2434    2.2482 H   0  0  0  0  0  0  0  0  0  0  0  0
   10.2679   -1.8878    1.7119 H   0  0  0  0  0  0  0  0  0  0  0  0
   10.7246   -1.0464    0.2175 H   0  0  0  0  0  0  0  0  0  0  0  0
   10.6710   -2.8170    0.2579 H   0  0  0  0  0  0  0  0  0  0  0  0
   -2.0886   -4.3522   -2.0925 H   0  0  0  0  0  0  0  0  0  0  0  0
   -0.9346   -5.6084   -2.6488 H   0  0  0  0  0  0  0  0  0  0  0  0
   -1.4128   -4.2864   -3.7339 H   0  0  0  0  0  0  0  0  0  0  0  0
  1 10  1  0  0  0  0
  1 29  1  0  0  0  0
  2 14  1  0  0  0  0
  2 22  1  0  0  0  0
  3 13  1  0  0  0  0
  3 25  1  0  0  0  0
  4 15  2  0  0  0  0
  5 22  2  0  0  0  0
  6 25  2  0  0  0  0
  7 29  1  0  0  0  0
  7 37  1  0  0  0  0
  8  9  1  0  0  0  0
  8 15  1  0  0  0  0
  8 21  1  0  0  0  0
  9 10  1  0  0  0  0
  9 11  1  0  0  0  0
  9 38  1  0  0  0  0
 10 12  1  0  0  0  0
 10 39  1  0  0  0  0
 11 20  1  0  0  0  0
 11 40  1  0  0  0  0
 11 41  1  0  0  0  0
 12 22  1  0  0  0  0
 12 42  1  0  0  0  0
 12 43  1  0  0  0  0
 13 15  1  0  0  0  0
 13 16  1  0  0  0  0
 13 44  1  0  0  0  0
 14 17  1  0  0  0  0
 14 19  1  0  0  0  0
 14 45  1  0  0  0  0
 16 26  1  0  0  0  0
 16 27  1  0  0  0  0
 16 46  1  0  0  0  0
 17 18  1  0  0  0  0
 17 47  1  0  0  0  0
 17 48  1  0  0  0  0
 18 23  1  0  0  0  0
 18 49  1  0  0  0  0
 18 50  1  0  0  0  0
 19 25  1  0  0  0  0
 19 51  1  0  0  0  0
 19 52  1  0  0  0  0
 20 30  2  0  0  0  0
 20 31  1  0  0  0  0
 21 53  1  0  0  0  0
 21 54  1  0  0  0  0
 21 55  1  0  0  0  0
 23 24  1  0  0  0  0
 23 56  1  0  0  0  0
 23 57  1  0  0  0  0
 24 28  1  0  0  0  0
 24 58  1  0  0  0  0
 24 59  1  0  0  0  0
 26 60  1  0  0  0  0
 26 61  1  0  0  0  0
 26 62  1  0  0  0  0
 27 63  1  0  0  0  0
 27 64  1  0  0  0  0
 27 65  1  0  0  0  0
 28 32  1  0  0  0  0
 28 66  1  0  0  0  0
 28 67  1  0  0  0  0
 29 68  1  0  0  0  0
 29 69  1  0  0  0  0
 30 33  1  0  0  0  0
 30 70  1  0  0  0  0
 31 34  2  0  0  0  0
 31 71  1  0  0  0  0
 32 36  1  0  0  0  0
 32 72  1  0  0  0  0
 32 73  1  0  0  0  0
 33 35  2  0  0  0  0
 33 74  1  0  0  0  0
 34 35  1  0  0  0  0
 34 75  1  0  0  0  0
 35 76  1  0  0  0  0
 36 77  1  0  0  0  0
 36 78  1  0  0  0  0
 36 79  1  0  0  0  0
 37 80  1  0  0  0  0
 37 81  1  0  0  0  0
 37 82  1  0  0  0  0
M  END
> <PUBCHEM_COMPOUND_CID>
44285863

> <PUBCHEM_CONFORMER_RMSD>
1.2

> <PUBCHEM_CONFORMER_DIVERSEORDER>
1
22
20
14
17
16
5
21
13
18
15
8
7
19
10
3
12
11
2
6
4
9

> <PUBCHEM_MMFF94_PARTIAL_CHARGES>
32
1 -0.56
10 0.28
11 0.14
12 0.06
13 0.34
14 0.28
15 0.57
19 0.06
2 -0.43
20 -0.14
21 0.3
22 0.66
25 0.66
29 0.56
3 -0.43
30 -0.15
31 -0.15
33 -0.15
34 -0.15
35 -0.15
37 0.28
4 -0.57
5 -0.57
6 -0.57
7 -0.56
70 0.15
71 0.15
74 0.15
75 0.15
76 0.15
8 -0.66
9 0.3

> <PUBCHEM_EFFECTIVE_ROTOR_COUNT>
13.8

> <PUBCHEM_PHARMACOPHORE_FEATURES>
10
1 1 acceptor
1 36 hydrophobe
1 4 acceptor
1 5 acceptor
1 6 acceptor
1 7 acceptor
3 16 26 27 hydrophobe
3 17 18 23 hydrophobe
3 24 28 32 hydrophobe
6 20 30 31 33 34 35 rings

> <PUBCHEM_HEAVY_ATOM_COUNT>
37

> <PUBCHEM_ATOM_DEF_STEREO_COUNT>
4

> <PUBCHEM_ATOM_UDEF_STEREO_COUNT>
0

> <PUBCHEM_BOND_DEF_STEREO_COUNT>
0

> <PUBCHEM_BOND_UDEF_STEREO_COUNT>
0

> <PUBCHEM_ISOTOPIC_ATOM_COUNT>
0

> <PUBCHEM_COMPONENT_COUNT>
1

> <PUBCHEM_CACTVS_TAUTO_COUNT>
8

> <PUBCHEM_CONFORMER_ID>
02A3BFA700000001

> <PUBCHEM_MMFF94_ENERGY>
82.1823

> <PUBCHEM_FEATURE_SELFOVERLAP>
50.795

> <PUBCHEM_SHAPE_FINGERPRINT>
11513181 2 17266387229007951052
12422481 6 18338233894525751945
13690498 29 18186794769450640148
14400156 162 18040437646721482618
14955137 171 17969791971974451969
15775530 1 17976531724854910255
16067689 68 16200144405264497446
16728300 4 18043796616364010458
23569917 315 18270118058190547807
4409770 3 18337942416491016108
44880168 125 18272641386173334770
57527452 28 16226054404994195651

> <PUBCHEM_SHAPE_MULTIPOLES>
715.38
17.79
5.66
2.14
46.85
1.3
-1.39
-14.48
10.68
-2.11
-3.58
-2.54
-0.14
1.98

> <PUBCHEM_SHAPE_SELFOVERLAP>
1438.506

> <PUBCHEM_SHAPE_VOLUME>
415.5

> <PUBCHEM_COORDINATE_TYPE>
2
5
10

$$$$