44285914
  -OEChem-03242010103D

 75 76  0     1  0  0  0  0  0999 V2000
    0.3898    0.9744    1.3070 O   0  0  0  0  0  0  0  0  0  0  0  0
    2.5436    1.4226   -0.4571 O   0  0  0  0  0  0  0  0  0  0  0  0
    1.4321   -2.9235    2.1052 O   0  0  0  0  0  0  0  0  0  0  0  0
    5.2517   -0.4563   -0.4717 O   0  0  0  0  0  0  0  0  0  0  0  0
    1.5274    2.7955   -2.0148 O   0  0  0  0  0  0  0  0  0  0  0  0
    1.3546    1.7028    3.2613 O   0  0  0  0  0  0  0  0  0  0  0  0
    3.2466   -1.4707    0.0382 N   0  0  0  0  0  0  0  0  0  0  0  0
    1.7603   -1.5222    0.1234 C   0  0  2  0  0  0  0  0  0  0  0  0
   -0.0610    2.2992    0.9443 C   0  0  1  0  0  0  0  0  0  0  0  0
    1.1856   -1.6228    1.5673 C   0  0  2  0  0  0  0  0  0  0  0  0
    1.1153    3.1138    0.3642 C   0  0  1  0  0  0  0  0  0  0  0  0
   -1.2248    2.1089   -0.0248 C   0  0  0  0  0  0  0  0  0  0  0  0
    1.2043   -2.6430   -0.7691 C   0  0  0  0  0  0  0  0  0  0  0  0
    3.3410    0.6690   -1.3981 C   0  0  0  0  0  0  0  0  0  0  0  0
   -2.5001    1.7104    0.7153 C   0  0  0  0  0  0  0  0  0  0  0  0
    1.7060   -0.5683    2.5564 C   0  0  0  0  0  0  0  0  0  0  0  0
    4.0151   -0.4603   -0.5691 C   0  0  0  0  0  0  0  0  0  0  0  0
   -3.7026    1.5180   -0.2132 C   0  0  0  0  0  0  0  0  0  0  0  0
    1.7324    2.4455   -0.8607 C   0  0  0  0  0  0  0  0  0  0  0  0
    1.1264    0.8247    2.4365 C   0  0  0  0  0  0  0  0  0  0  0  0
    0.7235    4.5566    0.0439 C   0  0  0  0  0  0  0  0  0  0  0  0
   -4.9640    1.0473    0.5143 C   0  0  0  0  0  0  0  0  0  0  0  0
    3.9841   -2.5683    0.6739 C   0  0  0  0  0  0  0  0  0  0  0  0
   -0.2959   -2.6577   -0.7537 C   0  0  0  0  0  0  0  0  0  0  0  0
    2.5543    0.0998   -2.5860 C   0  0  0  0  0  0  0  0  0  0  0  0
    4.4452    1.6068   -1.9335 C   0  0  0  0  0  0  0  0  0  0  0  0
   -6.1252    0.8492   -0.4629 C   0  0  0  0  0  0  0  0  0  0  0  0
   -7.3760    0.3424    0.2550 C   0  0  0  0  0  0  0  0  0  0  0  0
   -0.9766   -3.4223    0.1938 C   0  0  0  0  0  0  0  0  0  0  0  0
   -1.0100   -1.9068   -1.6873 C   0  0  0  0  0  0  0  0  0  0  0  0
   -2.3714   -3.4359    0.2078 C   0  0  0  0  0  0  0  0  0  0  0  0
   -2.4048   -1.9203   -1.6733 C   0  0  0  0  0  0  0  0  0  0  0  0
   -8.5415    0.1764   -0.7068 C   0  0  0  0  0  0  0  0  0  0  0  0
   -3.0854   -2.6849   -0.7258 C   0  0  0  0  0  0  0  0  0  0  0  0
    1.3773   -0.5871   -0.2752 H   0  0  0  0  0  0  0  0  0  0  0  0
   -0.4254    2.8073    1.8472 H   0  0  0  0  0  0  0  0  0  0  0  0
    0.0980   -1.5028    1.5390 H   0  0  0  0  0  0  0  0  0  0  0  0
    1.9175    3.1711    1.1121 H   0  0  0  0  0  0  0  0  0  0  0  0
   -1.4366    3.0315   -0.5732 H   0  0  0  0  0  0  0  0  0  0  0  0
   -0.9828    1.3351   -0.7636 H   0  0  0  0  0  0  0  0  0  0  0  0
    1.5689   -3.6291   -0.4576 H   0  0  0  0  0  0  0  0  0  0  0  0
    1.5636   -2.5274   -1.7991 H   0  0  0  0  0  0  0  0  0  0  0  0
   -2.3243    0.7775    1.2652 H   0  0  0  0  0  0  0  0  0  0  0  0
   -2.7480    2.4760    1.4610 H   0  0  0  0  0  0  0  0  0  0  0  0
    2.7951   -0.4810    2.4913 H   0  0  0  0  0  0  0  0  0  0  0  0
    1.4787   -0.9041    3.5764 H   0  0  0  0  0  0  0  0  0  0  0  0
   -3.9129    2.4654   -0.7248 H   0  0  0  0  0  0  0  0  0  0  0  0
   -3.4427    0.7931   -0.9924 H   0  0  0  0  0  0  0  0  0  0  0  0
    0.0257    4.6279   -0.7958 H   0  0  0  0  0  0  0  0  0  0  0  0
    1.6111    5.1365   -0.2341 H   0  0  0  0  0  0  0  0  0  0  0  0
    0.2680    5.0401    0.9141 H   0  0  0  0  0  0  0  0  0  0  0  0
   -5.2434    1.7824    1.2784 H   0  0  0  0  0  0  0  0  0  0  0  0
   -4.7546    0.1038    1.0327 H   0  0  0  0  0  0  0  0  0  0  0  0
    3.9769   -2.4229    1.7570 H   0  0  0  0  0  0  0  0  0  0  0  0
    5.0267   -2.6011    0.3456 H   0  0  0  0  0  0  0  0  0  0  0  0
    3.5319   -3.5296    0.4236 H   0  0  0  0  0  0  0  0  0  0  0  0
    2.4988    0.8209   -3.4097 H   0  0  0  0  0  0  0  0  0  0  0  0
    1.5188   -0.1265   -2.3296 H   0  0  0  0  0  0  0  0  0  0  0  0
    3.0283   -0.8032   -2.9851 H   0  0  0  0  0  0  0  0  0  0  0  0
    4.0288    2.4360   -2.5149 H   0  0  0  0  0  0  0  0  0  0  0  0
    5.1523    1.0703   -2.5761 H   0  0  0  0  0  0  0  0  0  0  0  0
    5.0056    2.0627   -1.1085 H   0  0  0  0  0  0  0  0  0  0  0  0
   -5.8343    0.1322   -1.2404 H   0  0  0  0  0  0  0  0  0  0  0  0
   -6.3468    1.7987   -0.9652 H   0  0  0  0  0  0  0  0  0  0  0  0
    0.9731   -2.9825    2.9603 H   0  0  0  0  0  0  0  0  0  0  0  0
   -7.6615    1.0451    1.0465 H   0  0  0  0  0  0  0  0  0  0  0  0
   -7.1650   -0.6198    0.7358 H   0  0  0  0  0  0  0  0  0  0  0  0
   -0.4452   -4.0433    0.9078 H   0  0  0  0  0  0  0  0  0  0  0  0
   -0.4958   -1.3095   -2.4341 H   0  0  0  0  0  0  0  0  0  0  0  0
   -2.9016   -4.0371    0.9406 H   0  0  0  0  0  0  0  0  0  0  0  0
   -2.9609   -1.3376   -2.4018 H   0  0  0  0  0  0  0  0  0  0  0  0
   -8.2999   -0.5439   -1.4949 H   0  0  0  0  0  0  0  0  0  0  0  0
   -8.7993    1.1296   -1.1793 H   0  0  0  0  0  0  0  0  0  0  0  0
   -9.4248   -0.1878   -0.1728 H   0  0  0  0  0  0  0  0  0  0  0  0
   -4.1714   -2.6953   -0.7156 H   0  0  0  0  0  0  0  0  0  0  0  0
  1  9  1  0  0  0  0
  1 20  1  0  0  0  0
  2 14  1  0  0  0  0
  2 19  1  0  0  0  0
  3 10  1  0  0  0  0
  3 65  1  0  0  0  0
  4 17  2  0  0  0  0
  5 19  2  0  0  0  0
  6 20  2  0  0  0  0
  7  8  1  0  0  0  0
  7 17  1  0  0  0  0
  7 23  1  0  0  0  0
  8 10  1  0  0  0  0
  8 13  1  0  0  0  0
  8 35  1  0  0  0  0
  9 11  1  0  0  0  0
  9 12  1  0  0  0  0
  9 36  1  0  0  0  0
 10 16  1  0  0  0  0
 10 37  1  0  0  0  0
 11 19  1  0  0  0  0
 11 21  1  0  0  0  0
 11 38  1  0  0  0  0
 12 15  1  0  0  0  0
 12 39  1  0  0  0  0
 12 40  1  0  0  0  0
 13 24  1  0  0  0  0
 13 41  1  0  0  0  0
 13 42  1  0  0  0  0
 14 17  1  0  0  0  0
 14 25  1  0  0  0  0
 14 26  1  0  0  0  0
 15 18  1  0  0  0  0
 15 43  1  0  0  0  0
 15 44  1  0  0  0  0
 16 20  1  0  0  0  0
 16 45  1  0  0  0  0
 16 46  1  0  0  0  0
 18 22  1  0  0  0  0
 18 47  1  0  0  0  0
 18 48  1  0  0  0  0
 21 49  1  0  0  0  0
 21 50  1  0  0  0  0
 21 51  1  0  0  0  0
 22 27  1  0  0  0  0
 22 52  1  0  0  0  0
 22 53  1  0  0  0  0
 23 54  1  0  0  0  0
 23 55  1  0  0  0  0
 23 56  1  0  0  0  0
 24 29  2  0  0  0  0
 24 30  1  0  0  0  0
 25 57  1  0  0  0  0
 25 58  1  0  0  0  0
 25 59  1  0  0  0  0
 26 60  1  0  0  0  0
 26 61  1  0  0  0  0
 26 62  1  0  0  0  0
 27 28  1  0  0  0  0
 27 63  1  0  0  0  0
 27 64  1  0  0  0  0
 28 33  1  0  0  0  0
 28 66  1  0  0  0  0
 28 67  1  0  0  0  0
 29 31  1  0  0  0  0
 29 68  1  0  0  0  0
 30 32  2  0  0  0  0
 30 69  1  0  0  0  0
 31 34  2  0  0  0  0
 31 70  1  0  0  0  0
 32 34  1  0  0  0  0
 32 71  1  0  0  0  0
 33 72  1  0  0  0  0
 33 73  1  0  0  0  0
 33 74  1  0  0  0  0
 34 75  1  0  0  0  0
M  END
> <PUBCHEM_COMPOUND_CID>
44285914

> <PUBCHEM_CONFORMER_RMSD>
1

> <PUBCHEM_CONFORMER_DIVERSEORDER>
2
44
5
27
34
37
11
18
35
24
39
1
12
10
42
31
22
38
25
36
17
21
41
29
43
40
9
15
7
3
20
26
13
19
4
32
16
33
28
14
6
30
8
23

> <PUBCHEM_MMFF94_PARTIAL_CHARGES>
30
1 -0.43
10 0.28
11 0.06
13 0.14
14 0.34
16 0.06
17 0.57
19 0.66
2 -0.43
20 0.66
23 0.3
24 -0.14
29 -0.15
3 -0.68
30 -0.15
31 -0.15
32 -0.15
34 -0.15
4 -0.57
5 -0.57
6 -0.57
65 0.4
68 0.15
69 0.15
7 -0.66
70 0.15
71 0.15
75 0.15
8 0.3
9 0.28

> <PUBCHEM_EFFECTIVE_ROTOR_COUNT>
9.8

> <PUBCHEM_PHARMACOPHORE_FEATURES>
10
1 3 acceptor
1 3 donor
1 33 hydrophobe
1 4 acceptor
1 5 acceptor
1 6 acceptor
3 12 15 18 hydrophobe
3 14 25 26 hydrophobe
3 22 27 28 hydrophobe
6 24 29 30 31 32 34 rings

> <PUBCHEM_HEAVY_ATOM_COUNT>
34

> <PUBCHEM_ATOM_DEF_STEREO_COUNT>
4

> <PUBCHEM_ATOM_UDEF_STEREO_COUNT>
0

> <PUBCHEM_BOND_DEF_STEREO_COUNT>
0

> <PUBCHEM_BOND_UDEF_STEREO_COUNT>
0

> <PUBCHEM_ISOTOPIC_ATOM_COUNT>
0

> <PUBCHEM_COMPONENT_COUNT>
1

> <PUBCHEM_CACTVS_TAUTO_COUNT>
4

> <PUBCHEM_CONFORMER_ID>
02A3BFDA00000002

> <PUBCHEM_MMFF94_ENERGY>
80.9096

> <PUBCHEM_FEATURE_SELFOVERLAP>
50.76

> <PUBCHEM_SHAPE_FINGERPRINT>
10316853 100 18342170069191912235
10764073 3 17700942618660803040
1100329 8 18411984680192573453
11578080 2 17202189914447274882
12156800 1 18268416018679838000
13383661 66 17629214718591100623
15001296 14 18338232782298040405
15968369 153 17916294121782245911
16114785 44 15976332426567105552
17492 54 18263383454674079828
19319366 153 18113617867748153371
20465049 17 18411145761837685365
20764821 26 18341887554453113031
21304303 94 18341058479593873365
3052486 1 18339349859925078714
338550 245 18411693327418738373
35225 105 17557114248311153814
463206 1 18408893940080067852
513532 50 17203601606126329579
5776283 40 17904498633141988180

> <PUBCHEM_SHAPE_MULTIPOLES>
659.51
11.66
4.93
2.28
28.8
0.29
-0.9
1.54
3.6
-0.94
-0.04
-2.31
0.27
-1.56

> <PUBCHEM_SHAPE_SELFOVERLAP>
1334.46

> <PUBCHEM_SHAPE_VOLUME>
381.5

> <PUBCHEM_COORDINATE_TYPE>
2
5
10

$$$$