29
 OpenBabel03292021433D

171174  0  0  1  0  0  0  0  0999 V2000
    8.8461   -3.8883    0.2495 C   0  0  0  0  0  0  0  0  0  0  0  0
    7.3881   -3.8309    0.5910 C   0  0  0  0  0  0  0  0  0  0  0  0
    6.3938   -5.0928    0.9336 C   0  0  2  0  0  0  0  0  0  0  0  0
    5.1037   -4.0211    1.0714 C   0  0  0  0  0  0  0  0  0  0  0  0
    5.9979   -6.4872   -0.2062 C   0  0  2  0  0  0  0  0  0  0  0  0
    6.1391   -8.3743   -0.3767 N   0  0  0  0  0  0  0  0  0  0  0  0
    6.1053   -9.8943    0.0405 C   0  0  0  0  0  0  0  0  0  0  0  0
    6.2345   -9.7853    1.2841 O   0  0  0  0  0  0  0  0  0  0  0  0
    5.9130  -11.7911   -0.5258 C   0  0  2  0  0  0  0  0  0  0  0  0
    6.9407  -12.8849   -1.0875 C   0  0  0  0  0  0  0  0  0  0  0  0
    6.3941  -13.5801   -2.3602 C   0  0  0  0  0  0  0  0  0  0  0  0
    4.9091  -13.6557   -2.1377 C   0  0  0  0  0  0  0  0  0  0  0  0
    4.6893  -13.0832   -0.7971 N   0  0  0  0  0  0  0  0  0  0  0  0
    4.0508  -14.2173   -0.0871 C   0  0  0  0  0  0  0  0  0  0  0  0
    3.1516  -14.8768   -0.6491 O   0  0  0  0  0  0  0  0  0  0  0  0
    4.3951  -14.6797    1.3479 C   0  0  2  0  0  0  0  0  0  0  0  0
    4.0885  -16.0946    1.9932 C   0  0  2  0  0  0  0  0  0  0  0  0
    2.7095  -16.4625    2.1373 O   0  0  0  0  0  0  0  0  0  0  0  0
    4.8274  -17.3251    1.5119 C   0  0  0  0  0  0  0  0  0  0  0  0
    6.0610  -17.6813    2.0844 C   0  0  0  0  0  0  0  0  0  0  0  0
    6.7170  -18.8528    1.6953 C   0  0  0  0  0  0  0  0  0  0  0  0
    6.1421  -19.6932    0.7448 C   0  0  0  0  0  0  0  0  0  0  0  0
    4.8991  -19.3793    0.2042 C   0  0  0  0  0  0  0  0  0  0  0  0
    4.2485  -18.2051    0.5836 C   0  0  0  0  0  0  0  0  0  0  0  0
    3.7163  -13.6557    2.1426 N   0  0  0  0  0  0  0  0  0  0  0  0
    2.2611  -13.6053    2.1543 C   0  0  0  0  0  0  0  0  0  0  0  0
    4.5481  -12.6408    2.4749 C   0  0  0  0  0  0  0  0  0  0  0  0
    5.7505  -12.8887    2.4626 O   0  0  0  0  0  0  0  0  0  0  0  0
    4.0610  -11.2787    2.8496 C   0  0  2  0  0  0  0  0  0  0  0  0
    3.4451  -10.3532    1.7478 C   0  0  0  0  0  0  0  0  0  0  0  0
    2.6543  -10.8607    0.5027 C   0  0  0  0  0  0  0  0  0  0  0  0
    1.2706  -11.0388    0.5724 C   0  0  0  0  0  0  0  0  0  0  0  0
    0.5193  -11.4221   -0.5497 C   0  0  0  0  0  0  0  0  0  0  0  0
    1.1036  -11.5849   -1.8043 C   0  0  0  0  0  0  0  0  0  0  0  0
    2.4400  -11.2979   -1.9460 C   0  0  0  0  0  0  0  0  0  0  0  0
    3.1730  -10.9207   -0.8105 C   0  0  0  0  0  0  0  0  0  0  0  0
    5.0683  -10.6841    3.8150 N   0  0  0  0  0  0  0  0  0  0  0  0
    6.4079  -10.8917    4.1107 C   0  0  0  0  0  0  0  0  0  0  0  0
    6.6534  -10.6590    5.3124 O   0  0  0  0  0  0  0  0  0  0  0  0
    7.6454  -11.2331    3.1251 C   0  0  2  0  0  0  0  0  0  0  0  0
    8.5496  -12.4755    3.5510 C   0  0  0  0  0  0  0  0  0  0  0  0
    9.6556  -12.7694    2.5155 C   0  0  0  0  0  0  0  0  0  0  0  0
    7.8212  -13.8121    3.7636 C   0  0  0  0  0  0  0  0  0  0  0  0
    8.5038   -9.9752    2.9752 N   0  0  0  0  0  0  0  0  0  0  0  0
    9.2273   -9.6189    4.1957 C   0  0  0  0  0  0  0  0  0  0  0  0
    8.9990   -9.6976    1.6801 C   0  0  0  0  0  0  0  0  0  0  0  0
    8.9601  -10.5947    0.8342 O   0  0  0  0  0  0  0  0  0  0  0  0
    9.4755   -8.2880    1.1453 C   0  0  1  0  0  0  0  0  0  0  0  0
   10.3480   -7.5534    2.1939 C   0  0  1  0  0  0  0  0  0  0  0  0
   11.6041   -8.3498    2.5561 C   0  0  0  0  0  0  0  0  0  0  0  0
   10.7401   -6.1262    1.8185 C   0  0  0  0  0  0  0  0  0  0  0  0
   11.4451   -5.3822    2.9511 C   0  0  0  0  0  0  0  0  0  0  0  0
   10.2771   -8.3699   -0.1302 O   0  0  0  0  0  0  0  0  0  0  0  0
   10.1016   -8.3892   -1.4894 C   0  0  0  0  0  0  0  0  0  0  0  0
   11.0988   -8.2479   -2.2073 O   0  0  0  0  0  0  0  0  0  0  0  0
    8.7398   -8.6953   -2.1759 C   0  0  2  0  0  0  0  0  0  0  0  0
    8.6210  -10.1069   -2.7810 C   0  0  0  0  0  0  0  0  0  0  0  0
    7.1468  -10.3339   -3.1930 C   0  0  0  0  0  0  0  0  0  0  0  0
    9.2403  -11.1506   -1.9080 C   0  0  0  0  0  0  0  0  0  0  0  0
    8.2435   -7.8079   -3.2937 N   0  0  0  0  0  0  0  0  0  0  0  0
    8.8013   -7.9385   -4.6299 C   0  0  0  0  0  0  0  0  0  0  0  0
    7.5364   -6.6838   -2.9554 C   0  0  0  0  0  0  0  0  0  0  0  0
    7.8156   -6.2320   -1.8431 O   0  0  0  0  0  0  0  0  0  0  0  0
    6.4353   -6.0670   -3.9861 C   0  0  2  0  0  0  0  0  0  0  0  0
    6.6359   -4.5375   -4.2952 C   0  0  0  0  0  0  0  0  0  0  0  0
    8.0941   -4.0121   -4.1274 C   0  0  0  0  0  0  0  0  0  0  0  0
    8.8650   -4.1824   -5.4333 C   0  0  0  0  0  0  0  0  0  0  0  0
    8.1571   -2.5479   -3.6767 C   0  0  0  0  0  0  0  0  0  0  0  0
    4.9259   -6.5020   -4.0737 N   0  0  0  0  0  0  0  0  0  0  0  0
    3.7232   -6.5383   -3.3563 C   0  0  0  0  0  0  0  0  0  0  0  0
    2.6796   -6.6110   -4.0122 O   0  0  0  0  0  0  0  0  0  0  0  0
    3.6707   -6.5479   -1.7941 C   0  0  2  0  0  0  0  0  0  0  0  0
    2.4887   -6.7596   -0.7999 C   0  0  0  0  0  0  0  0  0  0  0  0
    2.6132   -6.2501    0.6876 C   0  0  0  0  0  0  0  0  0  0  0  0
    2.3825   -8.2286   -0.6598 C   0  0  0  0  0  0  0  0  0  0  0  0
    4.1923   -5.2765   -1.5063 N   0  0  0  0  0  0  0  0  0  0  0  0
    3.3318   -4.1043   -1.7664 C   0  0  0  0  0  0  0  0  0  0  0  0
    5.4865   -5.3473   -1.3008 C   0  0  0  0  0  0  0  0  0  0  0  0
    6.1943   -4.3683   -1.6972 O   0  0  0  0  0  0  0  0  0  0  0  0
    9.0984   -3.0853   -0.4565 H   0  0  0  0  0  0  0  0  0  0  0  0
    9.1327   -4.8331   -0.2069 H   0  0  0  0  0  0  0  0  0  0  0  0
    9.4321   -3.6589    1.1438 H   0  0  0  0  0  0  0  0  0  0  0  0
    6.9595   -3.1683   -0.1779 H   0  0  0  0  0  0  0  0  0  0  0  0
    7.3405   -3.1477    1.4603 H   0  0  0  0  0  0  0  0  0  0  0  0
    6.5766   -5.4793    1.9331 H   0  0  0  0  0  0  0  0  0  0  0  0
    4.9271   -3.4473    0.1436 H   0  0  0  0  0  0  0  0  0  0  0  0
    5.3086   -3.2024    1.7785 H   0  0  0  0  0  0  0  0  0  0  0  0
    4.1567   -4.4331    1.3773 H   0  0  0  0  0  0  0  0  0  0  0  0
    5.1124   -6.6990    0.3688 H   0  0  0  0  0  0  0  0  0  0  0  0
    6.5166   -8.2760    0.5635 H   0  0  0  0  0  0  0  0  0  0  0  0
    6.0261  -12.0518    0.5188 H   0  0  0  0  0  0  0  0  0  0  0  0
    6.9162  -13.7088   -0.3463 H   0  0  0  0  0  0  0  0  0  0  0  0
    8.0005  -12.7937   -1.1221 H   0  0  0  0  0  0  0  0  0  0  0  0
    6.8198  -14.5899   -2.4603 H   0  0  0  0  0  0  0  0  0  0  0  0
    6.5934  -13.1305   -3.3309 H   0  0  0  0  0  0  0  0  0  0  0  0
    4.6427  -14.7217   -2.2348 H   0  0  0  0  0  0  0  0  0  0  0  0
    4.3260  -13.1277   -2.8915 H   0  0  0  0  0  0  0  0  0  0  0  0
    5.4898  -14.6311    1.3662 H   0  0  0  0  0  0  0  0  0  0  0  0
    4.4041  -15.9768    3.0424 H   0  0  0  0  0  0  0  0  0  0  0  0
    2.3147  -16.4182    1.2528 H   0  0  0  0  0  0  0  0  0  0  0  0
    6.5061  -17.0691    2.8673 H   0  0  0  0  0  0  0  0  0  0  0  0
    7.6706  -19.1180    2.1452 H   0  0  0  0  0  0  0  0  0  0  0  0
    6.6532  -20.6013    0.4372 H   0  0  0  0  0  0  0  0  0  0  0  0
    4.4246  -20.0530   -0.5042 H   0  0  0  0  0  0  0  0  0  0  0  0
    3.2601  -18.0100    0.1750 H   0  0  0  0  0  0  0  0  0  0  0  0
    1.7804  -14.5727    2.1090 H   0  0  0  0  0  0  0  0  0  0  0  0
    1.9372  -13.1187    1.2525 H   0  0  0  0  0  0  0  0  0  0  0  0
    1.8978  -13.0897    3.0435 H   0  0  0  0  0  0  0  0  0  0  0  0
    3.2145  -11.4753    3.5188 H   0  0  0  0  0  0  0  0  0  0  0  0
    2.7436   -9.6827    2.2771 H   0  0  0  0  0  0  0  0  0  0  0  0
    4.1493   -9.6218    1.3930 H   0  0  0  0  0  0  0  0  0  0  0  0
    0.7682  -10.8677    1.5187 H   0  0  0  0  0  0  0  0  0  0  0  0
   -0.5475  -11.5790   -0.4464 H   0  0  0  0  0  0  0  0  0  0  0  0
    0.5189  -11.8707   -2.6712 H   0  0  0  0  0  0  0  0  0  0  0  0
    2.9175  -11.3199   -2.9226 H   0  0  0  0  0  0  0  0  0  0  0  0
    4.1540  -10.5519   -1.0547 H   0  0  0  0  0  0  0  0  0  0  0  0
    4.6308  -10.4446    4.6952 H   0  0  0  0  0  0  0  0  0  0  0  0
    7.2706  -11.4660    2.1401 H   0  0  0  0  0  0  0  0  0  0  0  0
    9.0366  -12.2475    4.5050 H   0  0  0  0  0  0  0  0  0  0  0  0
    9.2233  -12.9512    1.5223 H   0  0  0  0  0  0  0  0  0  0  0  0
   10.2248  -13.6665    2.7801 H   0  0  0  0  0  0  0  0  0  0  0  0
   10.3761  -11.9517    2.4429 H   0  0  0  0  0  0  0  0  0  0  0  0
    7.5521  -14.2764    2.8040 H   0  0  0  0  0  0  0  0  0  0  0  0
    6.9323  -13.7090    4.3865 H   0  0  0  0  0  0  0  0  0  0  0  0
    8.4839  -14.5310    4.2569 H   0  0  0  0  0  0  0  0  0  0  0  0
    8.8243  -10.1189    5.0764 H   0  0  0  0  0  0  0  0  0  0  0  0
    9.1602   -8.5578    4.4133 H   0  0  0  0  0  0  0  0  0  0  0  0
   10.2610   -9.9568    4.1139 H   0  0  0  0  0  0  0  0  0  0  0  0
    8.5823   -7.6981    0.9195 H   0  0  0  0  0  0  0  0  0  0  0  0
    9.7222   -7.4142    3.0733 H   0  0  0  0  0  0  0  0  0  0  0  0
   12.4557   -8.0656    1.9347 H   0  0  0  0  0  0  0  0  0  0  0  0
   11.4690   -9.4271    2.4370 H   0  0  0  0  0  0  0  0  0  0  0  0
   11.8667   -8.1655    3.6048 H   0  0  0  0  0  0  0  0  0  0  0  0
    9.8104   -5.6059    1.6226 H   0  0  0  0  0  0  0  0  0  0  0  0
   11.3543   -6.1013    0.9134 H   0  0  0  0  0  0  0  0  0  0  0  0
   10.8280   -5.3749    3.8564 H   0  0  0  0  0  0  0  0  0  0  0  0
   11.6342   -4.3428    2.6668 H   0  0  0  0  0  0  0  0  0  0  0  0
   12.4067   -5.8404    3.1989 H   0  0  0  0  0  0  0  0  0  0  0  0
    8.0448   -8.6065   -1.3555 H   0  0  0  0  0  0  0  0  0  0  0  0
    9.2008  -10.2295   -3.6913 H   0  0  0  0  0  0  0  0  0  0  0  0
    6.4201   -9.8443   -2.5418 H   0  0  0  0  0  0  0  0  0  0  0  0
    6.8892  -11.3693   -3.2377 H   0  0  0  0  0  0  0  0  0  0  0  0
    6.9525   -9.9549   -4.2010 H   0  0  0  0  0  0  0  0  0  0  0  0
    8.6254  -11.1932   -1.0338 H   0  0  0  0  0  0  0  0  0  0  0  0
   10.2558  -10.9255   -1.5772 H   0  0  0  0  0  0  0  0  0  0  0  0
    9.2852  -12.1135   -2.4261 H   0  0  0  0  0  0  0  0  0  0  0  0
    9.5679   -8.7072   -4.7028 H   0  0  0  0  0  0  0  0  0  0  0  0
    9.2768   -7.0016   -4.8989 H   0  0  0  0  0  0  0  0  0  0  0  0
    7.9951   -8.1745   -5.3300 H   0  0  0  0  0  0  0  0  0  0  0  0
    6.7627   -6.5091   -4.9341 H   0  0  0  0  0  0  0  0  0  0  0  0
    6.3207   -4.3630   -5.3331 H   0  0  0  0  0  0  0  0  0  0  0  0
    5.9288   -3.9151   -3.7428 H   0  0  0  0  0  0  0  0  0  0  0  0
    8.6302   -4.5640   -3.3556 H   0  0  0  0  0  0  0  0  0  0  0  0
    8.4454   -3.5548   -6.2239 H   0  0  0  0  0  0  0  0  0  0  0  0
    8.8237   -5.2144   -5.7814 H   0  0  0  0  0  0  0  0  0  0  0  0
    9.9198   -3.9140   -5.3033 H   0  0  0  0  0  0  0  0  0  0  0  0
    7.6720   -1.8761   -4.3918 H   0  0  0  0  0  0  0  0  0  0  0  0
    9.2015   -2.2336   -3.5772 H   0  0  0  0  0  0  0  0  0  0  0  0
    7.6919   -2.4136   -2.6962 H   0  0  0  0  0  0  0  0  0  0  0  0
    4.6357   -6.4483   -5.0447 H   0  0  0  0  0  0  0  0  0  0  0  0
    4.4141   -7.3247   -1.6299 H   0  0  0  0  0  0  0  0  0  0  0  0
    1.5558   -6.3580   -1.1861 H   0  0  0  0  0  0  0  0  0  0  0  0
    3.6027   -6.2989    1.1300 H   0  0  0  0  0  0  0  0  0  0  0  0
    2.0348   -6.8496    1.4036 H   0  0  0  0  0  0  0  0  0  0  0  0
    2.2460   -5.2288    0.7979 H   0  0  0  0  0  0  0  0  0  0  0  0
    3.3951   -8.6304   -0.6684 H   0  0  0  0  0  0  0  0  0  0  0  0
    1.7982   -8.6450   -1.4751 H   0  0  0  0  0  0  0  0  0  0  0  0
    1.9397   -8.5054    0.2940 H   0  0  0  0  0  0  0  0  0  0  0  0
    2.5179   -4.3412   -2.4558 H   0  0  0  0  0  0  0  0  0  0  0  0
    3.9065   -3.2509   -2.1246 H   0  0  0  0  0  0  0  0  0  0  0  0
    2.8552   -3.8236   -0.8202 H   0  0  0  0  0  0  0  0  0  0  0  0
  1  2  1  0  0  0  0
  1 80  1  0  0  0  0
  1 81  1  0  0  0  0
  1 82  1  0  0  0  0
  2 83  1  0  0  0  0
  2 84  1  0  0  0  0
  3  4  1  0  0  0  0
  3  2  1  0  0  0  0
  3 85  1  6  0  0  0
  4 86  1  0  0  0  0
  4 87  1  0  0  0  0
  4 88  1  0  0  0  0
  5  6  1  0  0  0  0
  5 78  1  0  0  0  0
  5  3  1  0  0  0  0
  5 89  1  1  0  0  0
  6  7  1  0  0  0  0
  6 90  1  0  0  0  0
  7  8  2  0  0  0  0
  7  9  1  0  0  0  0
  9 10  1  0  0  0  0
  9 13  1  0  0  0  0
  9 91  1  1  0  0  0
 10 11  1  0  0  0  0
 10 92  1  0  0  0  0
 10 93  1  0  0  0  0
 11 12  1  0  0  0  0
 11 94  1  0  0  0  0
 11 95  1  0  0  0  0
 12 13  1  0  0  0  0
 12 96  1  0  0  0  0
 12 97  1  0  0  0  0
 13 14  1  0  0  0  0
 14 15  2  0  0  0  0
 14 16  1  0  0  0  0
 16 25  1  0  0  0  0
 16 17  1  0  0  0  0
 16 98  1  1  0  0  0
 17 19  1  0  0  0  0
 17 18  1  0  0  0  0
 17 99  1  6  0  0  0
 18100  1  0  0  0  0
 19 20  1  0  0  0  0
 19 24  2  0  0  0  0
 20 21  2  0  0  0  0
 20101  1  0  0  0  0
 21 22  1  0  0  0  0
 21102  1  0  0  0  0
 22 23  2  0  0  0  0
 22103  1  0  0  0  0
 23 24  1  0  0  0  0
 23104  1  0  0  0  0
 24105  1  0  0  0  0
 25 26  1  0  0  0  0
 25 27  1  0  0  0  0
 26106  1  0  0  0  0
 26107  1  0  0  0  0
 26108  1  0  0  0  0
 27 28  2  0  0  0  0
 27 29  1  0  0  0  0
 29 37  1  0  0  0  0
 29 30  1  0  0  0  0
 29109  1  1  0  0  0
 30 31  1  0  0  0  0
 30110  1  0  0  0  0
 30111  1  0  0  0  0
 31 32  1  0  0  0  0
 31 36  2  0  0  0  0
 32 33  2  0  0  0  0
 32112  1  0  0  0  0
 33 34  1  0  0  0  0
 33113  1  0  0  0  0
 34 35  2  0  0  0  0
 34114  1  0  0  0  0
 35 36  1  0  0  0  0
 35115  1  0  0  0  0
 36116  1  0  0  0  0
 37 38  1  0  0  0  0
 37117  1  0  0  0  0
 38 39  2  0  0  0  0
 38 40  1  0  0  0  0
 40 44  1  0  0  0  0
 40 41  1  0  0  0  0
 40118  1  6  0  0  0
 41 42  1  0  0  0  0
 41 43  1  0  0  0  0
 41119  1  0  0  0  0
 42120  1  0  0  0  0
 42121  1  0  0  0  0
 42122  1  0  0  0  0
 43123  1  0  0  0  0
 43124  1  0  0  0  0
 43125  1  0  0  0  0
 44 45  1  0  0  0  0
 44 46  1  0  0  0  0
 45126  1  0  0  0  0
 45127  1  0  0  0  0
 45128  1  0  0  0  0
 46 47  2  0  0  0  0
 46 48  1  0  0  0  0
 48 49  1  0  0  0  0
 48 53  1  0  0  0  0
 48129  1  6  0  0  0
 49 50  1  0  0  0  0
 49 51  1  0  0  0  0
 49130  1  1  0  0  0
 50131  1  0  0  0  0
 50132  1  0  0  0  0
 50133  1  0  0  0  0
 51 52  1  0  0  0  0
 51134  1  0  0  0  0
 51135  1  0  0  0  0
 52136  1  0  0  0  0
 52137  1  0  0  0  0
 52138  1  0  0  0  0
 53 54  1  0  0  0  0
 54 55  2  0  0  0  0
 54 56  1  0  0  0  0
 56 60  1  0  0  0  0
 56 57  1  0  0  0  0
 56139  1  1  0  0  0
 57 58  1  0  0  0  0
 57 59  1  0  0  0  0
 57140  1  0  0  0  0
 58141  1  0  0  0  0
 58142  1  0  0  0  0
 58143  1  0  0  0  0
 59144  1  0  0  0  0
 59145  1  0  0  0  0
 59146  1  0  0  0  0
 60 61  1  0  0  0  0
 60 62  1  0  0  0  0
 61147  1  0  0  0  0
 61148  1  0  0  0  0
 61149  1  0  0  0  0
 62 63  2  0  0  0  0
 62 64  1  0  0  0  0
 64 69  1  0  0  0  0
 64 65  1  0  0  0  0
 64150  1  6  0  0  0
 65 66  1  0  0  0  0
 65151  1  0  0  0  0
 65152  1  0  0  0  0
 66 67  1  0  0  0  0
 66 68  1  0  0  0  0
 66153  1  0  0  0  0
 67154  1  0  0  0  0
 67155  1  0  0  0  0
 67156  1  0  0  0  0
 68157  1  0  0  0  0
 68158  1  0  0  0  0
 68159  1  0  0  0  0
 69 70  1  0  0  0  0
 69160  1  0  0  0  0
 70 71  2  0  0  0  0
 70 72  1  0  0  0  0
 72 76  1  0  0  0  0
 72 73  1  0  0  0  0
 72161  1  1  0  0  0
 73 74  1  0  0  0  0
 73 75  1  0  0  0  0
 73162  1  0  0  0  0
 74163  1  0  0  0  0
 74164  1  0  0  0  0
 74165  1  0  0  0  0
 75166  1  0  0  0  0
 75167  1  0  0  0  0
 75168  1  0  0  0  0
 76 77  1  0  0  0  0
 76 78  1  0  0  0  0
 77169  1  0  0  0  0
 77170  1  0  0  0  0
 77171  1  0  0  0  0
 78 79  2  0  0  0  0
M  END
>  <Energy>
1048.15

$$$$