32
 OpenBabel03292021443D

199199  0  0  1  0  0  0  0  0999 V2000
    5.2286    2.4768    7.3901 C   0  0  0  0  0  0  0  0  0  0  0  0
    6.6325    1.9365    7.1643 C   0  0  0  0  0  0  0  0  0  0  0  0
    7.1160    1.5502    5.9667 C   0  0  0  0  0  0  0  0  0  0  0  0
    8.5484    0.9907    5.5873 C   0  0  0  0  0  0  0  0  0  0  0  0
    9.6543   -0.0020    4.7320 C   0  0  1  0  0  0  0  0  0  0  0  0
    9.3761    0.2716    3.2288 C   0  0  0  0  0  0  0  0  0  0  0  0
   11.3064   -0.4277    5.2115 C   0  0  1  0  0  0  0  0  0  0  0  0
   11.1181   -0.8751    6.5814 O   0  0  0  0  0  0  0  0  0  0  0  0
   12.7655    0.5151    5.2668 C   0  0  1  0  0  0  0  0  0  0  0  0
   14.4842    0.0729    4.8825 C   0  0  0  0  0  0  0  0  0  0  0  0
   14.7374   -0.6898    3.9449 O   0  0  0  0  0  0  0  0  0  0  0  0
   15.6276    0.7109    5.5970 N   0  0  0  0  0  0  0  0  0  0  0  0
   17.3126    0.6257    5.3060 C   0  0  1  0  0  0  0  0  0  0  0  0
   18.0769   -0.6910    5.8723 C   0  0  0  0  0  0  0  0  0  0  0  0
   19.5824   -1.0948    6.2971 C   0  0  0  0  0  0  0  0  0  0  0  0
   18.2704    1.9858    5.1542 C   0  0  0  0  0  0  0  0  0  0  0  0
   17.8539    2.8089    4.3243 O   0  0  0  0  0  0  0  0  0  0  0  0
   19.5000    2.3258    5.7652 N   0  0  0  0  0  0  0  0  0  0  0  0
   19.9663    1.8194    7.0494 C   0  0  0  0  0  0  0  0  0  0  0  0
   20.0871    3.6891    5.4616 C   0  0  0  0  0  0  0  0  0  0  0  0
   20.8265    4.2749    4.1998 C   0  0  0  0  0  0  0  0  0  0  0  0
   20.3783    5.3213    3.7114 O   0  0  0  0  0  0  0  0  0  0  0  0
   22.0734    3.7968    3.7775 N   0  0  0  0  0  0  0  0  0  0  0  0
   22.6698    2.5965    4.3335 C   0  0  0  0  0  0  0  0  0  0  0  0
   22.7997    4.5139    2.6592 C   0  0  2  0  0  0  0  0  0  0  0  0
   22.8854    3.6180    1.3940 C   0  0  0  0  0  0  0  0  0  0  0  0
   21.5119    3.3788    0.7320 C   0  0  0  0  0  0  0  0  0  0  0  0
   20.9554    4.6531    0.1049 C   0  0  0  0  0  0  0  0  0  0  0  0
   21.6186    2.3047   -0.3489 C   0  0  0  0  0  0  0  0  0  0  0  0
   24.2288    5.0530    3.0082 C   0  0  0  0  0  0  0  0  0  0  0  0
   25.0781    4.3192    3.5314 O   0  0  0  0  0  0  0  0  0  0  0  0
   24.6434    6.3312    2.7059 N   0  0  0  0  0  0  0  0  0  0  0  0
   23.9039    7.5855    2.3549 C   0  0  2  0  0  0  0  0  0  0  0  0
   22.8380    7.9045    3.4280 C   0  0  0  0  0  0  0  0  0  0  0  0
   21.9208    9.0789    3.1019 C   0  0  0  0  0  0  0  0  0  0  0  0
   23.4908    8.1292    4.8015 C   0  0  0  0  0  0  0  0  0  0  0  0
   23.4179    7.4965    0.8786 C   0  0  0  0  0  0  0  0  0  0  0  0
   23.1652    6.3771    0.4199 O   0  0  0  0  0  0  0  0  0  0  0  0
   23.2955    8.6020    0.0503 N   0  0  0  0  0  0  0  0  0  0  0  0
   23.8668    9.9117    0.3385 C   0  0  0  0  0  0  0  0  0  0  0  0
   22.8552    8.3371   -1.3621 C   0  0  2  0  0  0  0  0  0  0  0  0
   23.9951    8.3556   -2.4088 C   0  0  0  0  0  0  0  0  0  0  0  0
   24.9264    7.1217   -2.4032 C   0  0  0  0  0  0  0  0  0  0  0  0
   25.6236    7.0000   -3.7642 C   0  0  0  0  0  0  0  0  0  0  0  0
   25.9973    7.1811   -1.3137 C   0  0  0  0  0  0  0  0  0  0  0  0
   21.7407    9.2847   -1.8444 C   0  0  0  0  0  0  0  0  0  0  0  0
   21.9344   10.4953   -2.0546 O   0  0  0  0  0  0  0  0  0  0  0  0
   20.4421    8.8091   -2.0448 N   0  0  0  0  0  0  0  0  0  0  0  0
   19.9153    7.4881   -1.8516 C   0  0  1  0  0  0  0  0  0  0  0  0
   18.4833    7.5979   -1.3513 C   0  0  0  0  0  0  0  0  0  0  0  0
   20.2337    6.5896   -3.1017 C   0  0  0  0  0  0  0  0  0  0  0  0
   21.3624    6.6563   -3.6065 O   0  0  0  0  0  0  0  0  0  0  0  0
   19.4534    5.6126   -3.6381 N   0  0  0  0  0  0  0  0  0  0  0  0
   18.0596    5.6666   -4.1083 C   0  0  2  0  0  0  0  0  0  0  0  0
   17.6640    7.0236   -4.6964 C   0  0  0  0  0  0  0  0  0  0  0  0
   17.0366    5.1017   -3.0859 C   0  0  0  0  0  0  0  0  0  0  0  0
   16.2548    5.8870   -2.5412 O   0  0  0  0  0  0  0  0  0  0  0  0
   17.0896    3.7312   -2.8186 N   0  0  0  0  0  0  0  0  0  0  0  0
   16.8643    2.8152   -3.9235 C   0  0  0  0  0  0  0  0  0  0  0  0
   16.6176    3.1949   -1.5042 C   0  0  1  0  0  0  0  0  0  0  0  0
   17.4847    3.6712   -0.3454 C   0  0  0  0  0  0  0  0  0  0  0  0
   17.0229    3.2807    1.0597 C   0  0  0  0  0  0  0  0  0  0  0  0
   17.4680    1.8567    1.3931 C   0  0  0  0  0  0  0  0  0  0  0  0
   17.5592    4.3314    2.0351 C   0  0  0  0  0  0  0  0  0  0  0  0
   15.0754    3.1359   -1.3609 C   0  0  0  0  0  0  0  0  0  0  0  0
   14.5192    2.0553   -1.5966 O   0  0  0  0  0  0  0  0  0  0  0  0
   14.3441    4.2831   -1.1286 N   0  0  0  0  0  0  0  0  0  0  0  0
   14.8371    5.3662   -0.2750 C   0  0  0  0  0  0  0  0  0  0  0  0
   12.8771    4.2648   -1.2662 C   0  0  1  0  0  0  0  0  0  0  0  0
   12.2641    3.5873   -2.4978 C   0  0  0  0  0  0  0  0  0  0  0  0
   10.7311    3.7564   -2.5795 C   0  0  0  0  0  0  0  0  0  0  0  0
   10.3032    5.2210   -2.6935 C   0  0  0  0  0  0  0  0  0  0  0  0
   10.1877    2.9501   -3.7576 C   0  0  0  0  0  0  0  0  0  0  0  0
   12.2297    4.1638    0.1379 C   0  0  0  0  0  0  0  0  0  0  0  0
   11.9676    5.2545    0.6425 O   0  0  0  0  0  0  0  0  0  0  0  0
   12.1412    2.9877    0.8729 N   0  0  0  0  0  0  0  0  0  0  0  0
   11.8179    1.7239    0.2214 C   0  0  0  0  0  0  0  0  0  0  0  0
   12.6111    2.9482    2.3139 C   0  0  1  0  0  0  0  0  0  0  0  0
   12.5095    4.2531    3.1809 C   0  0  1  0  0  0  0  0  0  0  0  0
   13.7114    5.1888    3.0758 C   0  0  0  0  0  0  0  0  0  0  0  0
   11.1173    4.9205    3.2292 C   0  0  0  0  0  0  0  0  0  0  0  0
   10.9127    5.7775    4.4698 C   0  0  0  0  0  0  0  0  0  0  0  0
   12.2902    1.6552    3.1966 C   0  0  0  0  0  0  0  0  0  0  0  0
   12.1539    0.5448    2.6815 O   0  0  0  0  0  0  0  0  0  0  0  0
   12.4195    1.7574    4.6010 N   0  0  0  0  0  0  0  0  0  0  0  0
   11.4347    2.5089    5.3844 C   0  0  0  0  0  0  0  0  0  0  0  0
    5.1245    2.8556    8.4153 H   0  0  0  0  0  0  0  0  0  0  0  0
    4.4675    1.6980    7.2643 H   0  0  0  0  0  0  0  0  0  0  0  0
    4.9873    3.3123    6.7226 H   0  0  0  0  0  0  0  0  0  0  0  0
    7.2578    1.8970    8.0493 H   0  0  0  0  0  0  0  0  0  0  0  0
    6.4137    1.6693    5.1282 H   0  0  0  0  0  0  0  0  0  0  0  0
    8.8025    1.9176    5.0543 H   0  0  0  0  0  0  0  0  0  0  0  0
    7.8384    0.3147    5.0636 H   0  0  0  0  0  0  0  0  0  0  0  0
    9.1949   -0.9967    4.8942 H   0  0  0  0  0  0  0  0  0  0  0  0
    9.6515    1.2876    2.9338 H   0  0  0  0  0  0  0  0  0  0  0  0
    8.2958    0.1999    3.0163 H   0  0  0  0  0  0  0  0  0  0  0  0
    9.8495   -0.4643    2.5780 H   0  0  0  0  0  0  0  0  0  0  0  0
   11.5408   -1.3130    4.6076 H   0  0  0  0  0  0  0  0  0  0  0  0
   10.2017   -1.1949    6.6723 H   0  0  0  0  0  0  0  0  0  0  0  0
   12.8955    0.7444    6.3374 H   0  0  0  0  0  0  0  0  0  0  0  0
   15.3777    1.5059    6.1659 H   0  0  0  0  0  0  0  0  0  0  0  0
   17.2034    0.3695    4.2382 H   0  0  0  0  0  0  0  0  0  0  0  0
   17.9294   -0.3362    6.8856 H   0  0  0  0  0  0  0  0  0  0  0  0
   18.5455   -0.7400    4.8888 H   0  0  0  0  0  0  0  0  0  0  0  0
   19.6619   -2.1911    6.3164 H   0  0  0  0  0  0  0  0  0  0  0  0
   19.8769   -0.7777    7.3053 H   0  0  0  0  0  0  0  0  0  0  0  0
   20.3630   -0.7303    5.6095 H   0  0  0  0  0  0  0  0  0  0  0  0
   20.9273    1.3196    6.8960 H   0  0  0  0  0  0  0  0  0  0  0  0
   19.2319    1.1890    7.5374 H   0  0  0  0  0  0  0  0  0  0  0  0
   20.1467    2.6509    7.7434 H   0  0  0  0  0  0  0  0  0  0  0  0
   20.8145    3.9117    6.2598 H   0  0  0  0  0  0  0  0  0  0  0  0
   19.2642    4.3925    5.6526 H   0  0  0  0  0  0  0  0  0  0  0  0
   21.9522    1.7774    4.2539 H   0  0  0  0  0  0  0  0  0  0  0  0
   22.9161    2.7686    5.3834 H   0  0  0  0  0  0  0  0  0  0  0  0
   23.5813    2.3128    3.7984 H   0  0  0  0  0  0  0  0  0  0  0  0
   22.2111    5.3862    2.3998 H   0  0  0  0  0  0  0  0  0  0  0  0
   23.5738    4.0527    0.6594 H   0  0  0  0  0  0  0  0  0  0  0  0
   23.3359    2.6530    1.6511 H   0  0  0  0  0  0  0  0  0  0  0  0
   20.8068    3.0213    1.4893 H   0  0  0  0  0  0  0  0  0  0  0  0
   21.6219    5.0204   -0.6797 H   0  0  0  0  0  0  0  0  0  0  0  0
   20.7889    5.4419    0.8435 H   0  0  0  0  0  0  0  0  0  0  0  0
   20.0012    4.4853   -0.3819 H   0  0  0  0  0  0  0  0  0  0  0  0
   22.2693    2.6273   -1.1683 H   0  0  0  0  0  0  0  0  0  0  0  0
   20.6310    2.0855   -0.7691 H   0  0  0  0  0  0  0  0  0  0  0  0
   22.0195    1.3731    0.0630 H   0  0  0  0  0  0  0  0  0  0  0  0
   25.6172    6.4601    2.9504 H   0  0  0  0  0  0  0  0  0  0  0  0
   24.6856    8.3535    2.3861 H   0  0  0  0  0  0  0  0  0  0  0  0
   22.1829    7.0432    3.5447 H   0  0  0  0  0  0  0  0  0  0  0  0
   22.4679   10.0245    3.0596 H   0  0  0  0  0  0  0  0  0  0  0  0
   21.1530    9.1789    3.8785 H   0  0  0  0  0  0  0  0  0  0  0  0
   21.3965    8.9257    2.1546 H   0  0  0  0  0  0  0  0  0  0  0  0
   24.1002    9.0387    4.8103 H   0  0  0  0  0  0  0  0  0  0  0  0
   24.1321    7.2895    5.0890 H   0  0  0  0  0  0  0  0  0  0  0  0
   22.7243    8.2248    5.5786 H   0  0  0  0  0  0  0  0  0  0  0  0
   24.0188   10.0626    1.4058 H   0  0  0  0  0  0  0  0  0  0  0  0
   23.2132   10.7075   -0.0198 H   0  0  0  0  0  0  0  0  0  0  0  0
   24.8418    9.9859   -0.1521 H   0  0  0  0  0  0  0  0  0  0  0  0
   22.4464    7.3287   -1.4021 H   0  0  0  0  0  0  0  0  0  0  0  0
   23.5171    8.3987   -3.3985 H   0  0  0  0  0  0  0  0  0  0  0  0
   24.5832    9.2778   -2.3350 H   0  0  0  0  0  0  0  0  0  0  0  0
   24.3281    6.2129   -2.2610 H   0  0  0  0  0  0  0  0  0  0  0  0
   26.1945    7.9046   -3.9981 H   0  0  0  0  0  0  0  0  0  0  0  0
   24.8924    6.8402   -4.5637 H   0  0  0  0  0  0  0  0  0  0  0  0
   26.3141    6.1494   -3.7763 H   0  0  0  0  0  0  0  0  0  0  0  0
   26.5153    8.1449   -1.3150 H   0  0  0  0  0  0  0  0  0  0  0  0
   26.7452    6.3938   -1.4579 H   0  0  0  0  0  0  0  0  0  0  0  0
   25.5803    7.0242   -0.3206 H   0  0  0  0  0  0  0  0  0  0  0  0
   19.8524    9.5291   -2.4409 H   0  0  0  0  0  0  0  0  0  0  0  0
   20.4613    7.0240   -1.0345 H   0  0  0  0  0  0  0  0  0  0  0  0
   17.8112    8.0657   -2.0684 H   0  0  0  0  0  0  0  0  0  0  0  0
   18.4513    8.2129   -0.4444 H   0  0  0  0  0  0  0  0  0  0  0  0
   18.0921    6.6203   -1.0735 H   0  0  0  0  0  0  0  0  0  0  0  0
   20.0374    5.1210   -4.3081 H   0  0  0  0  0  0  0  0  0  0  0  0
   18.0355    4.9867   -4.9598 H   0  0  0  0  0  0  0  0  0  0  0  0
   18.0735    7.8711   -4.1430 H   0  0  0  0  0  0  0  0  0  0  0  0
   16.5782    7.1463   -4.7470 H   0  0  0  0  0  0  0  0  0  0  0  0
   18.0535    7.1107   -5.7166 H   0  0  0  0  0  0  0  0  0  0  0  0
   17.3377    3.1528   -4.8411 H   0  0  0  0  0  0  0  0  0  0  0  0
   15.7862    2.7476   -4.1016 H   0  0  0  0  0  0  0  0  0  0  0  0
   17.2609    1.8296   -3.6694 H   0  0  0  0  0  0  0  0  0  0  0  0
   16.8832    2.1253   -1.5484 H   0  0  0  0  0  0  0  0  0  0  0  0
   17.6484    4.7434   -0.4062 H   0  0  0  0  0  0  0  0  0  0  0  0
   18.4763    3.2352   -0.5047 H   0  0  0  0  0  0  0  0  0  0  0  0
   15.9354    3.2960    1.1362 H   0  0  0  0  0  0  0  0  0  0  0  0
   18.5583    1.7696    1.4474 H   0  0  0  0  0  0  0  0  0  0  0  0
   17.1112    1.1499    0.6358 H   0  0  0  0  0  0  0  0  0  0  0  0
   17.0468    1.5312    2.3450 H   0  0  0  0  0  0  0  0  0  0  0  0
   18.6393    4.2337    2.1675 H   0  0  0  0  0  0  0  0  0  0  0  0
   17.0558    4.2639    2.9979 H   0  0  0  0  0  0  0  0  0  0  0  0
   17.3536    5.3503    1.6920 H   0  0  0  0  0  0  0  0  0  0  0  0
   15.8819    5.6044   -0.4033 H   0  0  0  0  0  0  0  0  0  0  0  0
   14.7314    5.0380    0.7523 H   0  0  0  0  0  0  0  0  0  0  0  0
   14.2634    6.2836   -0.4283 H   0  0  0  0  0  0  0  0  0  0  0  0
   12.6938    5.3202   -1.5255 H   0  0  0  0  0  0  0  0  0  0  0  0
   12.5129    2.5266   -2.5629 H   0  0  0  0  0  0  0  0  0  0  0  0
   12.7221    4.0309   -3.3946 H   0  0  0  0  0  0  0  0  0  0  0  0
   10.2741    3.3506   -1.6699 H   0  0  0  0  0  0  0  0  0  0  0  0
   10.7835    5.7120   -3.5454 H   0  0  0  0  0  0  0  0  0  0  0  0
   10.5543    5.7841   -1.7901 H   0  0  0  0  0  0  0  0  0  0  0  0
    9.2174    5.2979   -2.8199 H   0  0  0  0  0  0  0  0  0  0  0  0
   10.6233    3.2845   -4.7044 H   0  0  0  0  0  0  0  0  0  0  0  0
    9.0994    3.0478   -3.8265 H   0  0  0  0  0  0  0  0  0  0  0  0
   10.4180    1.8865   -3.6328 H   0  0  0  0  0  0  0  0  0  0  0  0
   11.7199    1.8107   -0.8527 H   0  0  0  0  0  0  0  0  0  0  0  0
   10.8366    1.4021    0.5872 H   0  0  0  0  0  0  0  0  0  0  0  0
   12.5789    0.9678    0.4182 H   0  0  0  0  0  0  0  0  0  0  0  0
   13.6880    2.7757    2.1657 H   0  0  0  0  0  0  0  0  0  0  0  0
   12.7037    3.9391    4.1966 H   0  0  0  0  0  0  0  0  0  0  0  0
   13.5940    5.9621    2.3185 H   0  0  0  0  0  0  0  0  0  0  0  0
   14.6252    4.6150    2.8922 H   0  0  0  0  0  0  0  0  0  0  0  0
   13.8744    5.6945    4.0351 H   0  0  0  0  0  0  0  0  0  0  0  0
   10.3336    4.1567    3.1707 H   0  0  0  0  0  0  0  0  0  0  0  0
   10.9233    5.5876    2.3943 H   0  0  0  0  0  0  0  0  0  0  0  0
   11.1409    5.2376    5.3898 H   0  0  0  0  0  0  0  0  0  0  0  0
    9.8699    6.1028    4.5251 H   0  0  0  0  0  0  0  0  0  0  0  0
   11.5488    6.6657    4.4302 H   0  0  0  0  0  0  0  0  0  0  0  0
   11.9439    3.2798    5.9649 H   0  0  0  0  0  0  0  0  0  0  0  0
   10.9448    1.8768    6.1296 H   0  0  0  0  0  0  0  0  0  0  0  0
   10.6547    2.9049    4.7462 H   0  0  0  0  0  0  0  0  0  0  0  0
  1  2  1  0  0  0  0
  1 87  1  0  0  0  0
  1 88  1  0  0  0  0
  1 89  1  0  0  0  0
  2  3  2  0  0  0  0
  2 90  1  0  0  0  0
  3  4  1  0  0  0  0
  3 91  1  0  0  0  0
  4  5  1  0  0  0  0
  4 92  1  0  0  0  0
  4 93  1  0  0  0  0
  5  6  1  0  0  0  0
  5  7  1  0  0  0  0
  5 94  1  1  0  0  0
  6 95  1  0  0  0  0
  6 96  1  0  0  0  0
  6 97  1  0  0  0  0
  7  8  1  0  0  0  0
  7  9  1  0  0  0  0
  7 98  1  1  0  0  0
  8 99  1  0  0  0  0
  9 10  1  0  0  0  0
  9 85  1  0  0  0  0
  9100  1  1  0  0  0
 10 11  2  0  0  0  0
 10 12  1  0  0  0  0
 12 13  1  0  0  0  0
 12101  1  0  0  0  0
 13 14  1  0  0  0  0
 13 16  1  0  0  0  0
 13102  1  1  0  0  0
 14 15  1  0  0  0  0
 14103  1  0  0  0  0
 14104  1  0  0  0  0
 15105  1  0  0  0  0
 15106  1  0  0  0  0
 15107  1  0  0  0  0
 16 17  2  0  0  0  0
 16 18  1  0  0  0  0
 18 19  1  0  0  0  0
 18 20  1  0  0  0  0
 19108  1  0  0  0  0
 19109  1  0  0  0  0
 19110  1  0  0  0  0
 20 21  1  0  0  0  0
 20111  1  0  0  0  0
 20112  1  0  0  0  0
 21 22  2  0  0  0  0
 21 23  1  0  0  0  0
 23 24  1  0  0  0  0
 23 25  1  0  0  0  0
 24113  1  0  0  0  0
 24114  1  0  0  0  0
 24115  1  0  0  0  0
 25 30  1  0  0  0  0
 25 26  1  0  0  0  0
 25116  1  6  0  0  0
 26 27  1  0  0  0  0
 26117  1  0  0  0  0
 26118  1  0  0  0  0
 27 28  1  0  0  0  0
 27 29  1  0  0  0  0
 27119  1  0  0  0  0
 28120  1  0  0  0  0
 28121  1  0  0  0  0
 28122  1  0  0  0  0
 29123  1  0  0  0  0
 29124  1  0  0  0  0
 29125  1  0  0  0  0
 30 31  2  0  0  0  0
 30 32  1  0  0  0  0
 32 33  1  0  0  0  0
 32126  1  0  0  0  0
 33 37  1  0  0  0  0
 33 34  1  0  0  0  0
 33127  1  1  0  0  0
 34 35  1  0  0  0  0
 34 36  1  0  0  0  0
 34128  1  0  0  0  0
 35129  1  0  0  0  0
 35130  1  0  0  0  0
 35131  1  0  0  0  0
 36132  1  0  0  0  0
 36133  1  0  0  0  0
 36134  1  0  0  0  0
 37 38  2  0  0  0  0
 37 39  1  0  0  0  0
 39 40  1  0  0  0  0
 39 41  1  0  0  0  0
 40135  1  0  0  0  0
 40136  1  0  0  0  0
 40137  1  0  0  0  0
 41 46  1  0  0  0  0
 41 42  1  0  0  0  0
 41138  1  6  0  0  0
 42 43  1  0  0  0  0
 42139  1  0  0  0  0
 42140  1  0  0  0  0
 43 44  1  0  0  0  0
 43 45  1  0  0  0  0
 43141  1  0  0  0  0
 44142  1  0  0  0  0
 44143  1  0  0  0  0
 44144  1  0  0  0  0
 45145  1  0  0  0  0
 45146  1  0  0  0  0
 45147  1  0  0  0  0
 46 47  2  0  0  0  0
 46 48  1  0  0  0  0
 48 49  1  0  0  0  0
 48148  1  0  0  0  0
 49 50  1  0  0  0  0
 49 51  1  0  0  0  0
 49149  1  1  0  0  0
 50150  1  0  0  0  0
 50151  1  0  0  0  0
 50152  1  0  0  0  0
 51 52  2  0  0  0  0
 51 53  1  0  0  0  0
 53 54  1  0  0  0  0
 53153  1  0  0  0  0
 54 56  1  0  0  0  0
 54 55  1  0  0  0  0
 54154  1  6  0  0  0
 55155  1  0  0  0  0
 55156  1  0  0  0  0
 55157  1  0  0  0  0
 56 57  2  0  0  0  0
 56 58  1  0  0  0  0
 58 59  1  0  0  0  0
 58 60  1  0  0  0  0
 59158  1  0  0  0  0
 59159  1  0  0  0  0
 59160  1  0  0  0  0
 60 61  1  0  0  0  0
 60 65  1  0  0  0  0
 60161  1  6  0  0  0
 61 62  1  0  0  0  0
 61162  1  0  0  0  0
 61163  1  0  0  0  0
 62 63  1  0  0  0  0
 62 64  1  0  0  0  0
 62164  1  0  0  0  0
 63165  1  0  0  0  0
 63166  1  0  0  0  0
 63167  1  0  0  0  0
 64168  1  0  0  0  0
 64169  1  0  0  0  0
 64170  1  0  0  0  0
 65 66  2  0  0  0  0
 65 67  1  0  0  0  0
 67 68  1  0  0  0  0
 67 69  1  0  0  0  0
 68171  1  0  0  0  0
 68172  1  0  0  0  0
 68173  1  0  0  0  0
 69 70  1  0  0  0  0
 69 74  1  0  0  0  0
 69174  1  6  0  0  0
 70 71  1  0  0  0  0
 70175  1  0  0  0  0
 70176  1  0  0  0  0
 71 72  1  0  0  0  0
 71 73  1  0  0  0  0
 71177  1  0  0  0  0
 72178  1  0  0  0  0
 72179  1  0  0  0  0
 72180  1  0  0  0  0
 73181  1  0  0  0  0
 73182  1  0  0  0  0
 73183  1  0  0  0  0
 74 75  2  0  0  0  0
 74 76  1  0  0  0  0
 76 77  1  0  0  0  0
 76 78  1  0  0  0  0
 77184  1  0  0  0  0
 77185  1  0  0  0  0
 77186  1  0  0  0  0
 78 79  1  0  0  0  0
 78 83  1  0  0  0  0
 78187  1  6  0  0  0
 79 80  1  0  0  0  0
 79 81  1  0  0  0  0
 79188  1  1  0  0  0
 80189  1  0  0  0  0
 80190  1  0  0  0  0
 80191  1  0  0  0  0
 81 82  1  0  0  0  0
 81192  1  0  0  0  0
 81193  1  0  0  0  0
 82194  1  0  0  0  0
 82195  1  0  0  0  0
 82196  1  0  0  0  0
 83 84  2  0  0  0  0
 83 85  1  0  0  0  0
 85 86  1  0  0  0  0
 86197  1  0  0  0  0
 86198  1  0  0  0  0
 86199  1  0  0  0  0
M  END
>  <Energy>
721.06

$$$$