33
 OpenBabel03292021443D

193193  0  0  1  0  0  0  0  0999 V2000
    8.0909    0.3517   -6.2498 C   0  0  0  0  0  0  0  0  0  0  0  0
    8.8633   -0.2912   -7.3721 C   0  0  0  0  0  0  0  0  0  0  0  0
   10.2071   -0.2512   -7.4847 C   0  0  0  0  0  0  0  0  0  0  0  0
   11.1076   -0.9335   -8.5372 C   0  0  0  0  0  0  0  0  0  0  0  0
   12.2783   -1.7169   -7.8465 C   0  0  1  0  0  0  0  0  0  0  0  0
   11.6641   -2.8753   -7.0388 C   0  0  0  0  0  0  0  0  0  0  0  0
   13.6493   -2.0917   -8.6630 C   0  0  1  0  0  0  0  0  0  0  0  0
   13.4631   -3.3384   -9.3339 O   0  0  0  0  0  0  0  0  0  0  0  0
   15.0155   -2.1343   -7.7590 C   0  0  1  0  0  0  0  0  0  0  0  0
   16.6384   -2.2661   -8.3757 C   0  0  0  0  0  0  0  0  0  0  0  0
   17.4587   -1.4355   -7.9479 O   0  0  0  0  0  0  0  0  0  0  0  0
   17.1607   -3.3050   -9.2065 N   0  0  0  0  0  0  0  0  0  0  0  0
   18.7560   -3.5637   -9.4906 C   0  0  1  0  0  0  0  0  0  0  0  0
   19.4177   -2.3163  -10.1154 C   0  0  0  0  0  0  0  0  0  0  0  0
   20.9351   -2.2382   -9.8917 C   0  0  0  0  0  0  0  0  0  0  0  0
   19.3623   -5.0230  -10.1357 C   0  0  0  0  0  0  0  0  0  0  0  0
   18.7516   -6.0675   -9.8702 O   0  0  0  0  0  0  0  0  0  0  0  0
   20.6709   -5.0969  -10.7773 N   0  0  0  0  0  0  0  0  0  0  0  0
   20.7669   -4.5819  -12.1324 C   0  0  0  0  0  0  0  0  0  0  0  0
   21.5536   -6.3262  -10.5921 C   0  0  0  0  0  0  0  0  0  0  0  0
   22.7844   -6.7917  -11.5515 C   0  0  0  0  0  0  0  0  0  0  0  0
   22.4737   -7.1458  -12.7032 O   0  0  0  0  0  0  0  0  0  0  0  0
   24.1464   -6.8896  -11.1695 N   0  0  0  0  0  0  0  0  0  0  0  0
   25.0252   -7.7574  -11.9656 C   0  0  0  0  0  0  0  0  0  0  0  0
   24.8107   -6.2618   -9.9885 C   0  0  2  0  0  0  0  0  0  0  0  0
   25.9564   -5.2762  -10.3675 C   0  0  0  0  0  0  0  0  0  0  0  0
   26.2949   -4.1870   -9.3073 C   0  0  0  0  0  0  0  0  0  0  0  0
   26.8711   -4.7049   -7.9884 C   0  0  0  0  0  0  0  0  0  0  0  0
   27.3009   -3.1887   -9.8957 C   0  0  0  0  0  0  0  0  0  0  0  0
   25.4608   -7.3056   -9.0226 C   0  0  0  0  0  0  0  0  0  0  0  0
   26.4104   -8.0017   -9.3716 O   0  0  0  0  0  0  0  0  0  0  0  0
   25.0431   -7.4225   -7.7252 N   0  0  0  0  0  0  0  0  0  0  0  0
   23.6733   -7.4438   -7.2236 C   0  0  2  0  0  0  0  0  0  0  0  0
   22.8351   -8.4781   -8.0275 C   0  0  0  0  0  0  0  0  0  0  0  0
   21.3378   -8.4750   -7.7314 C   0  0  0  0  0  0  0  0  0  0  0  0
   23.3702   -9.9114   -7.8302 C   0  0  0  0  0  0  0  0  0  0  0  0
   23.0573   -6.0157   -7.0702 C   0  0  0  0  0  0  0  0  0  0  0  0
   22.9091   -5.2089   -7.9952 O   0  0  0  0  0  0  0  0  0  0  0  0
   22.6258   -5.5099   -5.9020 N   0  0  0  0  0  0  0  0  0  0  0  0
   22.7558   -6.0082   -4.5454 C   0  0  1  0  0  0  0  0  0  0  0  0
   22.4154   -4.8791   -3.5692 C   0  0  0  0  0  0  0  0  0  0  0  0
   23.5519   -3.8528   -3.3524 C   0  0  0  0  0  0  0  0  0  0  0  0
   22.9898   -2.6320   -2.6173 C   0  0  0  0  0  0  0  0  0  0  0  0
   24.7030   -4.4597   -2.5540 C   0  0  0  0  0  0  0  0  0  0  0  0
   21.8858   -7.2803   -4.4880 C   0  0  0  0  0  0  0  0  0  0  0  0
   22.4014   -8.4017   -4.5761 O   0  0  0  0  0  0  0  0  0  0  0  0
   20.5236   -7.2384   -4.5812 N   0  0  0  0  0  0  0  0  0  0  0  0
   19.6445   -6.4679   -3.6988 C   0  0  1  0  0  0  0  0  0  0  0  0
   18.2809   -6.4585   -4.3691 C   0  0  0  0  0  0  0  0  0  0  0  0
   19.8882   -7.0599   -2.2670 C   0  0  0  0  0  0  0  0  0  0  0  0
   21.0226   -7.4512   -1.9633 O   0  0  0  0  0  0  0  0  0  0  0  0
   19.0560   -7.0588   -1.2203 N   0  0  0  0  0  0  0  0  0  0  0  0
   17.6221   -7.2058   -1.0963 C   0  0  2  0  0  0  0  0  0  0  0  0
   17.1017   -8.4297   -1.8425 C   0  0  0  0  0  0  0  0  0  0  0  0
   16.8422   -5.9093   -1.3574 C   0  0  0  0  0  0  0  0  0  0  0  0
   15.7193   -5.9795   -1.8525 O   0  0  0  0  0  0  0  0  0  0  0  0
   17.3991   -4.7232   -0.8385 N   0  0  0  0  0  0  0  0  0  0  0  0
   17.5754   -4.7361    0.6101 C   0  0  0  0  0  0  0  0  0  0  0  0
   16.9882   -3.3980   -1.3865 C   0  0  1  0  0  0  0  0  0  0  0  0
   17.7872   -2.9270   -2.6309 C   0  0  0  0  0  0  0  0  0  0  0  0
   17.4541   -1.4927   -3.1252 C   0  0  0  0  0  0  0  0  0  0  0  0
   17.8839   -0.4009   -2.1433 C   0  0  0  0  0  0  0  0  0  0  0  0
   18.0764   -1.2223   -4.4982 C   0  0  0  0  0  0  0  0  0  0  0  0
   15.4653   -3.1496   -1.3064 C   0  0  0  0  0  0  0  0  0  0  0  0
   14.9960   -2.8296   -0.2060 O   0  0  0  0  0  0  0  0  0  0  0  0
   14.6594   -3.3472   -2.4210 N   0  0  0  0  0  0  0  0  0  0  0  0
   15.1056   -3.9437   -3.6717 C   0  0  0  0  0  0  0  0  0  0  0  0
   13.3156   -2.7272   -2.4407 C   0  0  1  0  0  0  0  0  0  0  0  0
   12.4362   -3.1564   -1.2467 C   0  0  0  0  0  0  0  0  0  0  0  0
   10.9421   -3.4284   -1.5434 C   0  0  0  0  0  0  0  0  0  0  0  0
   10.7101   -4.5531   -2.5552 C   0  0  0  0  0  0  0  0  0  0  0  0
   10.2262   -3.7801   -0.2323 C   0  0  0  0  0  0  0  0  0  0  0  0
   13.5438   -1.1865   -2.6095 C   0  0  0  0  0  0  0  0  0  0  0  0
   14.4086   -0.5397   -2.0241 O   0  0  0  0  0  0  0  0  0  0  0  0
   12.6934   -0.5839   -3.5396 N   0  0  0  0  0  0  0  0  0  0  0  0
   11.5615    0.0666   -2.9096 C   0  0  0  0  0  0  0  0  0  0  0  0
   13.3071    0.0422   -4.7745 C   0  0  1  0  0  0  0  0  0  0  0  0
   13.7587    1.5254   -4.6919 C   0  0  0  0  0  0  0  0  0  0  0  0
   12.6222    2.5250   -4.3938 C   0  0  0  0  0  0  0  0  0  0  0  0
   14.9434    1.7994   -3.7830 C   0  0  0  0  0  0  0  0  0  0  0  0
   14.1544   -1.0902   -5.5907 C   0  0  0  0  0  0  0  0  0  0  0  0
   13.8827   -2.2676   -5.3119 O   0  0  0  0  0  0  0  0  0  0  0  0
   14.9026   -0.9180   -6.7675 N   0  0  0  0  0  0  0  0  0  0  0  0
   15.1606    0.3849   -7.3461 C   0  0  0  0  0  0  0  0  0  0  0  0
    7.3513   -0.3507   -5.8469 H   0  0  0  0  0  0  0  0  0  0  0  0
    7.5493    1.2377   -6.6006 H   0  0  0  0  0  0  0  0  0  0  0  0
    8.7325    0.6554   -5.4140 H   0  0  0  0  0  0  0  0  0  0  0  0
    8.2681   -0.8250   -8.1082 H   0  0  0  0  0  0  0  0  0  0  0  0
   10.7294    0.3281   -6.7247 H   0  0  0  0  0  0  0  0  0  0  0  0
   11.5244   -0.1359   -9.1594 H   0  0  0  0  0  0  0  0  0  0  0  0
   10.5107   -1.5941   -9.1735 H   0  0  0  0  0  0  0  0  0  0  0  0
   12.5889   -0.9586   -7.1525 H   0  0  0  0  0  0  0  0  0  0  0  0
   10.9199   -3.4260   -7.6209 H   0  0  0  0  0  0  0  0  0  0  0  0
   11.1602   -2.4931   -6.1414 H   0  0  0  0  0  0  0  0  0  0  0  0
   12.4187   -3.5947   -6.6946 H   0  0  0  0  0  0  0  0  0  0  0  0
   13.7911   -1.3252   -9.4324 H   0  0  0  0  0  0  0  0  0  0  0  0
   13.1517   -3.9915   -8.6810 H   0  0  0  0  0  0  0  0  0  0  0  0
   14.9456   -3.0532   -7.1618 H   0  0  0  0  0  0  0  0  0  0  0  0
   16.5446   -4.0524   -9.5038 H   0  0  0  0  0  0  0  0  0  0  0  0
   19.1284   -3.6244   -8.4565 H   0  0  0  0  0  0  0  0  0  0  0  0
   18.9986   -1.4062   -9.6845 H   0  0  0  0  0  0  0  0  0  0  0  0
   19.1837   -2.2557  -11.1820 H   0  0  0  0  0  0  0  0  0  0  0  0
   21.3072   -3.0067   -9.2068 H   0  0  0  0  0  0  0  0  0  0  0  0
   21.2131   -1.2665   -9.4711 H   0  0  0  0  0  0  0  0  0  0  0  0
   21.4774   -2.3279  -10.8377 H   0  0  0  0  0  0  0  0  0  0  0  0
   21.7981   -4.2433  -12.3056 H   0  0  0  0  0  0  0  0  0  0  0  0
   20.0761   -3.7687  -12.3190 H   0  0  0  0  0  0  0  0  0  0  0  0
   20.5338   -5.3839  -12.8414 H   0  0  0  0  0  0  0  0  0  0  0  0
   20.8662   -7.1822  -10.6843 H   0  0  0  0  0  0  0  0  0  0  0  0
   21.8641   -6.3513   -9.5601 H   0  0  0  0  0  0  0  0  0  0  0  0
   24.6286   -7.9522  -12.9688 H   0  0  0  0  0  0  0  0  0  0  0  0
   25.1276   -8.7180  -11.4562 H   0  0  0  0  0  0  0  0  0  0  0  0
   26.0164   -7.3053  -12.0789 H   0  0  0  0  0  0  0  0  0  0  0  0
   24.0557   -5.6683   -9.5237 H   0  0  0  0  0  0  0  0  0  0  0  0
   26.8821   -5.8263  -10.5936 H   0  0  0  0  0  0  0  0  0  0  0  0
   25.6723   -4.7714  -11.2975 H   0  0  0  0  0  0  0  0  0  0  0  0
   25.3721   -3.6353   -9.0815 H   0  0  0  0  0  0  0  0  0  0  0  0
   27.7096   -5.3922   -8.1515 H   0  0  0  0  0  0  0  0  0  0  0  0
   26.1148   -5.2058   -7.3839 H   0  0  0  0  0  0  0  0  0  0  0  0
   27.2419   -3.8777   -7.3697 H   0  0  0  0  0  0  0  0  0  0  0  0
   28.2761   -3.6633  -10.0635 H   0  0  0  0  0  0  0  0  0  0  0  0
   27.4567   -2.3502   -9.2051 H   0  0  0  0  0  0  0  0  0  0  0  0
   26.9493   -2.7789  -10.8429 H   0  0  0  0  0  0  0  0  0  0  0  0
   25.6485   -8.1191   -7.2737 H   0  0  0  0  0  0  0  0  0  0  0  0
   23.8170   -7.8302   -6.2194 H   0  0  0  0  0  0  0  0  0  0  0  0
   22.9455   -8.2667   -9.0922 H   0  0  0  0  0  0  0  0  0  0  0  0
   21.1096   -8.9715   -6.7858 H   0  0  0  0  0  0  0  0  0  0  0  0
   20.8058   -9.0244   -8.5174 H   0  0  0  0  0  0  0  0  0  0  0  0
   20.9216   -7.4647   -7.7089 H   0  0  0  0  0  0  0  0  0  0  0  0
   23.2850  -10.2296   -6.7859 H   0  0  0  0  0  0  0  0  0  0  0  0
   24.4215   -9.9992   -8.1244 H   0  0  0  0  0  0  0  0  0  0  0  0
   22.8064  -10.6222   -8.4460 H   0  0  0  0  0  0  0  0  0  0  0  0
   22.2779   -4.5665   -6.0272 H   0  0  0  0  0  0  0  0  0  0  0  0
   23.7899   -6.3418   -4.4055 H   0  0  0  0  0  0  0  0  0  0  0  0
   22.1273   -5.2846   -2.6001 H   0  0  0  0  0  0  0  0  0  0  0  0
   21.5655   -4.3119   -3.9576 H   0  0  0  0  0  0  0  0  0  0  0  0
   23.9359   -3.5136   -4.3216 H   0  0  0  0  0  0  0  0  0  0  0  0
   22.5336   -2.9175   -1.6631 H   0  0  0  0  0  0  0  0  0  0  0  0
   22.2214   -2.1352   -3.2210 H   0  0  0  0  0  0  0  0  0  0  0  0
   23.7754   -1.8967   -2.4134 H   0  0  0  0  0  0  0  0  0  0  0  0
   24.3408   -4.9304   -1.6328 H   0  0  0  0  0  0  0  0  0  0  0  0
   25.4350   -3.6940   -2.2773 H   0  0  0  0  0  0  0  0  0  0  0  0
   25.2328   -5.2191   -3.1365 H   0  0  0  0  0  0  0  0  0  0  0  0
   20.2134   -8.1991   -4.6865 H   0  0  0  0  0  0  0  0  0  0  0  0
   19.9658   -5.4327   -3.6496 H   0  0  0  0  0  0  0  0  0  0  0  0
   17.9454   -7.4589   -4.6564 H   0  0  0  0  0  0  0  0  0  0  0  0
   18.3318   -5.8809   -5.3043 H   0  0  0  0  0  0  0  0  0  0  0  0
   17.5240   -5.9929   -3.7557 H   0  0  0  0  0  0  0  0  0  0  0  0
   19.5713   -7.4455   -0.4327 H   0  0  0  0  0  0  0  0  0  0  0  0
   17.4506   -7.4243   -0.0339 H   0  0  0  0  0  0  0  0  0  0  0  0
   17.2687   -8.3722   -2.9153 H   0  0  0  0  0  0  0  0  0  0  0  0
   16.0256   -8.5637   -1.6898 H   0  0  0  0  0  0  0  0  0  0  0  0
   17.6106   -9.3356   -1.4915 H   0  0  0  0  0  0  0  0  0  0  0  0
   18.1699   -5.5935    0.9268 H   0  0  0  0  0  0  0  0  0  0  0  0
   16.5875   -4.8079    1.0806 H   0  0  0  0  0  0  0  0  0  0  0  0
   18.0838   -3.8302    0.9488 H   0  0  0  0  0  0  0  0  0  0  0  0
   17.3616   -2.6840   -0.6361 H   0  0  0  0  0  0  0  0  0  0  0  0
   17.6837   -3.6348   -3.4560 H   0  0  0  0  0  0  0  0  0  0  0  0
   18.8582   -2.9609   -2.3824 H   0  0  0  0  0  0  0  0  0  0  0  0
   16.3757   -1.3976   -3.2634 H   0  0  0  0  0  0  0  0  0  0  0  0
   18.9636   -0.4299   -1.9643 H   0  0  0  0  0  0  0  0  0  0  0  0
   17.3702   -0.4996   -1.1828 H   0  0  0  0  0  0  0  0  0  0  0  0
   17.6394    0.5920   -2.5356 H   0  0  0  0  0  0  0  0  0  0  0  0
   19.1697   -1.2431   -4.4561 H   0  0  0  0  0  0  0  0  0  0  0  0
   17.7703   -0.2397   -4.8750 H   0  0  0  0  0  0  0  0  0  0  0  0
   17.7440   -1.9685   -5.2266 H   0  0  0  0  0  0  0  0  0  0  0  0
   15.8889   -4.6733   -3.5374 H   0  0  0  0  0  0  0  0  0  0  0  0
   15.5463   -3.1809   -4.3047 H   0  0  0  0  0  0  0  0  0  0  0  0
   14.2763   -4.4538   -4.1686 H   0  0  0  0  0  0  0  0  0  0  0  0
   12.8212   -3.0766   -3.3490 H   0  0  0  0  0  0  0  0  0  0  0  0
   12.4994   -2.3944   -0.4600 H   0  0  0  0  0  0  0  0  0  0  0  0
   12.8402   -4.0865   -0.8219 H   0  0  0  0  0  0  0  0  0  0  0  0
   10.4756   -2.5248   -1.9412 H   0  0  0  0  0  0  0  0  0  0  0  0
   11.1911   -5.4836   -2.2370 H   0  0  0  0  0  0  0  0  0  0  0  0
   11.0873   -4.2923   -3.5476 H   0  0  0  0  0  0  0  0  0  0  0  0
    9.6375   -4.7507   -2.6670 H   0  0  0  0  0  0  0  0  0  0  0  0
   10.6084   -4.7168    0.1892 H   0  0  0  0  0  0  0  0  0  0  0  0
    9.1497   -3.8991   -0.3949 H   0  0  0  0  0  0  0  0  0  0  0  0
   10.3648   -2.9916    0.5148 H   0  0  0  0  0  0  0  0  0  0  0  0
   11.1310   -0.5831   -2.1455 H   0  0  0  0  0  0  0  0  0  0  0  0
   10.7936    0.3012   -3.6481 H   0  0  0  0  0  0  0  0  0  0  0  0
   11.8933    0.9562   -2.3708 H   0  0  0  0  0  0  0  0  0  0  0  0
   12.4208    0.1066   -5.4144 H   0  0  0  0  0  0  0  0  0  0  0  0
   14.0660    1.8173   -5.6942 H   0  0  0  0  0  0  0  0  0  0  0  0
   12.4742    2.6865   -3.3226 H   0  0  0  0  0  0  0  0  0  0  0  0
   11.6722    2.2118   -4.8400 H   0  0  0  0  0  0  0  0  0  0  0  0
   12.8625    3.5069   -4.8176 H   0  0  0  0  0  0  0  0  0  0  0  0
   14.6648    1.7586   -2.7270 H   0  0  0  0  0  0  0  0  0  0  0  0
   15.3311    2.8079   -3.9681 H   0  0  0  0  0  0  0  0  0  0  0  0
   15.7523    1.0920   -3.9737 H   0  0  0  0  0  0  0  0  0  0  0  0
   15.7119    0.9926   -6.6269 H   0  0  0  0  0  0  0  0  0  0  0  0
   14.2061    0.8557   -7.6041 H   0  0  0  0  0  0  0  0  0  0  0  0
   15.7537    0.3058   -8.2572 H   0  0  0  0  0  0  0  0  0  0  0  0
  1  2  1  0  0  0  0
  1 85  1  0  0  0  0
  1 86  1  0  0  0  0
  1 87  1  0  0  0  0
  2  3  2  0  0  0  0
  2 88  1  0  0  0  0
  3  4  1  0  0  0  0
  3 89  1  0  0  0  0
  4  5  1  0  0  0  0
  4 90  1  0  0  0  0
  4 91  1  0  0  0  0
  5  6  1  0  0  0  0
  5  7  1  0  0  0  0
  5 92  1  1  0  0  0
  6 93  1  0  0  0  0
  6 94  1  0  0  0  0
  6 95  1  0  0  0  0
  7  8  1  0  0  0  0
  7 96  1  1  0  0  0
  8 97  1  0  0  0  0
  9 10  1  0  0  0  0
  9 83  1  0  0  0  0
  9  7  1  0  0  0  0
  9 98  1  1  0  0  0
 10 11  2  0  0  0  0
 10 12  1  0  0  0  0
 12 13  1  0  0  0  0
 12 99  1  0  0  0  0
 13 14  1  0  0  0  0
 13 16  1  0  0  0  0
 13100  1  6  0  0  0
 14 15  1  0  0  0  0
 14101  1  0  0  0  0
 14102  1  0  0  0  0
 15103  1  0  0  0  0
 15104  1  0  0  0  0
 15105  1  0  0  0  0
 16 17  2  0  0  0  0
 16 18  1  0  0  0  0
 18 19  1  0  0  0  0
 18 20  1  0  0  0  0
 19106  1  0  0  0  0
 19107  1  0  0  0  0
 19108  1  0  0  0  0
 20 21  1  0  0  0  0
 20109  1  0  0  0  0
 20110  1  0  0  0  0
 21 22  2  0  0  0  0
 21 23  1  0  0  0  0
 23 24  1  0  0  0  0
 23 25  1  0  0  0  0
 24111  1  0  0  0  0
 24112  1  0  0  0  0
 24113  1  0  0  0  0
 25 30  1  0  0  0  0
 25 26  1  0  0  0  0
 25114  1  1  0  0  0
 26 27  1  0  0  0  0
 26115  1  0  0  0  0
 26116  1  0  0  0  0
 27 28  1  0  0  0  0
 27 29  1  0  0  0  0
 27117  1  0  0  0  0
 28118  1  0  0  0  0
 28119  1  0  0  0  0
 28120  1  0  0  0  0
 29121  1  0  0  0  0
 29122  1  0  0  0  0
 29123  1  0  0  0  0
 30 31  2  0  0  0  0
 30 32  1  0  0  0  0
 32 33  1  0  0  0  0
 32124  1  0  0  0  0
 33 37  1  0  0  0  0
 33 34  1  0  0  0  0
 33125  1  1  0  0  0
 34 35  1  0  0  0  0
 34 36  1  0  0  0  0
 34126  1  0  0  0  0
 35127  1  0  0  0  0
 35128  1  0  0  0  0
 35129  1  0  0  0  0
 36130  1  0  0  0  0
 36131  1  0  0  0  0
 36132  1  0  0  0  0
 37 38  2  0  0  0  0
 37 39  1  0  0  0  0
 39 40  1  0  0  0  0
 39133  1  0  0  0  0
 40 41  1  0  0  0  0
 40 45  1  0  0  0  0
 40134  1  1  0  0  0
 41 42  1  0  0  0  0
 41135  1  0  0  0  0
 41136  1  0  0  0  0
 42 43  1  0  0  0  0
 42 44  1  0  0  0  0
 42137  1  0  0  0  0
 43138  1  0  0  0  0
 43139  1  0  0  0  0
 43140  1  0  0  0  0
 44141  1  0  0  0  0
 44142  1  0  0  0  0
 44143  1  0  0  0  0
 45 46  2  0  0  0  0
 45 47  1  0  0  0  0
 47 48  1  0  0  0  0
 47144  1  0  0  0  0
 48 49  1  0  0  0  0
 48 50  1  0  0  0  0
 48145  1  1  0  0  0
 49146  1  0  0  0  0
 49147  1  0  0  0  0
 49148  1  0  0  0  0
 50 51  2  0  0  0  0
 50 52  1  0  0  0  0
 52 53  1  0  0  0  0
 52149  1  0  0  0  0
 53 55  1  0  0  0  0
 53 54  1  0  0  0  0
 53150  1  1  0  0  0
 54151  1  0  0  0  0
 54152  1  0  0  0  0
 54153  1  0  0  0  0
 55 56  2  0  0  0  0
 55 57  1  0  0  0  0
 57 58  1  0  0  0  0
 57 59  1  0  0  0  0
 58154  1  0  0  0  0
 58155  1  0  0  0  0
 58156  1  0  0  0  0
 59 60  1  0  0  0  0
 59 64  1  0  0  0  0
 59157  1  1  0  0  0
 60 61  1  0  0  0  0
 60158  1  0  0  0  0
 60159  1  0  0  0  0
 61 62  1  0  0  0  0
 61 63  1  0  0  0  0
 61160  1  0  0  0  0
 62161  1  0  0  0  0
 62162  1  0  0  0  0
 62163  1  0  0  0  0
 63164  1  0  0  0  0
 63165  1  0  0  0  0
 63166  1  0  0  0  0
 64 65  2  0  0  0  0
 64 66  1  0  0  0  0
 66 67  1  0  0  0  0
 66 68  1  0  0  0  0
 67167  1  0  0  0  0
 67168  1  0  0  0  0
 67169  1  0  0  0  0
 68 69  1  0  0  0  0
 68 73  1  0  0  0  0
 68170  1  6  0  0  0
 69 70  1  0  0  0  0
 69171  1  0  0  0  0
 69172  1  0  0  0  0
 70 71  1  0  0  0  0
 70 72  1  0  0  0  0
 70173  1  0  0  0  0
 71174  1  0  0  0  0
 71175  1  0  0  0  0
 71176  1  0  0  0  0
 72177  1  0  0  0  0
 72178  1  0  0  0  0
 72179  1  0  0  0  0
 73 74  2  0  0  0  0
 73 75  1  0  0  0  0
 75 76  1  0  0  0  0
 75 77  1  0  0  0  0
 76180  1  0  0  0  0
 76181  1  0  0  0  0
 76182  1  0  0  0  0
 77 78  1  0  0  0  0
 77 81  1  0  0  0  0
 77183  1  6  0  0  0
 78 79  1  0  0  0  0
 78 80  1  0  0  0  0
 78184  1  0  0  0  0
 79185  1  0  0  0  0
 79186  1  0  0  0  0
 79187  1  0  0  0  0
 80188  1  0  0  0  0
 80189  1  0  0  0  0
 80190  1  0  0  0  0
 81 82  2  0  0  0  0
 81 83  1  0  0  0  0
 83 84  1  0  0  0  0
 84191  1  0  0  0  0
 84192  1  0  0  0  0
 84193  1  0  0  0  0
M  END
>  <Energy>
499.93

$$$$