127044901
  -OEChem-03242010103D

 52 55  0     0  0  0  0  0  0999 V2000
   -5.4814    2.8284    0.5635 O   0  0  0  0  0  0  0  0  0  0  0  0
   -8.0527    1.9998   -0.0897 O   0  0  0  0  0  0  0  0  0  0  0  0
   -1.8337   -3.6973    0.2482 O   0  0  0  0  0  0  0  0  0  0  0  0
    3.9242   -1.0253   -0.3308 N   0  0  0  0  0  0  0  0  0  0  0  0
    3.8742    1.1731   -1.1680 N   0  0  0  0  0  0  0  0  0  0  0  0
    5.7497    2.6524   -0.8500 N   0  0  0  0  0  0  0  0  0  0  0  0
    5.8403    0.4189    0.0185 C   0  0  0  0  0  0  0  0  0  0  0  0
    2.5741   -1.3930   -0.2162 C   0  0  0  0  0  0  0  0  0  0  0  0
    4.5627    0.2282   -0.5005 C   0  0  0  0  0  0  0  0  0  0  0  0
    6.4095    1.6862   -0.1878 C   0  0  0  0  0  0  0  0  0  0  0  0
   -0.1079   -2.1256    0.0114 C   0  0  0  0  0  0  0  0  0  0  0  0
    2.1522   -2.6435   -0.6675 C   0  0  0  0  0  0  0  0  0  0  0  0
    1.6552   -0.5088    0.3490 C   0  0  0  0  0  0  0  0  0  0  0  0
    0.8111   -3.0098   -0.5536 C   0  0  0  0  0  0  0  0  0  0  0  0
    0.3142   -0.8752    0.4628 C   0  0  0  0  0  0  0  0  0  0  0  0
    6.5396   -0.5838    0.7125 C   0  0  0  0  0  0  0  0  0  0  0  0
   -4.9530   -0.7569    0.0856 C   0  0  0  0  0  0  0  0  0  0  0  0
    7.6872    1.9148    0.3173 C   0  0  0  0  0  0  0  0  0  0  0  0
   -1.5063   -2.5068    0.1291 C   0  0  0  0  0  0  0  0  0  0  0  0
    7.8149   -0.3280    1.2064 C   0  0  0  0  0  0  0  0  0  0  0  0
   -4.7011    0.5881    0.3561 C   0  0  0  0  0  0  0  0  0  0  0  0
   -5.7395    1.5176    0.2975 C   0  0  0  0  0  0  0  0  0  0  0  0
   -3.8561   -1.7391    0.1480 C   0  0  0  0  0  0  0  0  0  0  0  0
    8.3891    0.9227    1.0084 C   0  0  0  0  0  0  0  0  0  0  0  0
   -2.5532   -1.4299    0.0715 C   0  0  0  0  0  0  0  0  0  0  0  0
   -6.2434   -1.1725   -0.2430 C   0  0  0  0  0  0  0  0  0  0  0  0
   -7.0297    1.1020   -0.0313 C   0  0  0  0  0  0  0  0  0  0  0  0
   -7.2817   -0.2432   -0.3015 C   0  0  0  0  0  0  0  0  0  0  0  0
    4.5181    2.3436   -1.3041 C   0  0  0  0  0  0  0  0  0  0  0  0
   -4.1359    3.1703    0.8915 C   0  0  0  0  0  0  0  0  0  0  0  0
   -9.3408    1.4927   -0.4332 C   0  0  0  0  0  0  0  0  0  0  0  0
    4.5385   -1.8105   -0.5287 H   0  0  0  0  0  0  0  0  0  0  0  0
    2.8574   -3.3415   -1.1115 H   0  0  0  0  0  0  0  0  0  0  0  0
    1.9636    0.4621    0.7276 H   0  0  0  0  0  0  0  0  0  0  0  0
    0.5007   -3.9867   -0.9153 H   0  0  0  0  0  0  0  0  0  0  0  0
   -0.3587   -0.1722    0.9447 H   0  0  0  0  0  0  0  0  0  0  0  0
    6.1165   -1.5684    0.8913 H   0  0  0  0  0  0  0  0  0  0  0  0
    8.1590    2.8853    0.1759 H   0  0  0  0  0  0  0  0  0  0  0  0
   -3.6979    0.8793    0.6392 H   0  0  0  0  0  0  0  0  0  0  0  0
    8.3577   -1.0991    1.7445 H   0  0  0  0  0  0  0  0  0  0  0  0
   -4.1679   -2.7733    0.2722 H   0  0  0  0  0  0  0  0  0  0  0  0
    9.3841    1.1308    1.3911 H   0  0  0  0  0  0  0  0  0  0  0  0
   -6.4565   -2.2170   -0.4576 H   0  0  0  0  0  0  0  0  0  0  0  0
   -2.2202   -0.4164   -0.1094 H   0  0  0  0  0  0  0  0  0  0  0  0
   -8.2575   -0.6376   -0.5631 H   0  0  0  0  0  0  0  0  0  0  0  0
    3.9916    3.1263   -1.8365 H   0  0  0  0  0  0  0  0  0  0  0  0
   -4.1128    4.2516    1.0636 H   0  0  0  0  0  0  0  0  0  0  0  0
   -3.4519    2.9689    0.0598 H   0  0  0  0  0  0  0  0  0  0  0  0
   -3.8141    2.6957    1.8249 H   0  0  0  0  0  0  0  0  0  0  0  0
  -10.0318    2.3421   -0.4336 H   0  0  0  0  0  0  0  0  0  0  0  0
   -9.7089    0.7842    0.3168 H   0  0  0  0  0  0  0  0  0  0  0  0
   -9.3528    1.0730   -1.4449 H   0  0  0  0  0  0  0  0  0  0  0  0
  1 22  1  0  0  0  0
  1 30  1  0  0  0  0
  2 27  1  0  0  0  0
  2 31  1  0  0  0  0
  3 19  2  0  0  0  0
  4  8  1  0  0  0  0
  4  9  1  0  0  0  0
  4 32  1  0  0  0  0
  5  9  2  0  0  0  0
  5 29  1  0  0  0  0
  6 10  1  0  0  0  0
  6 29  2  0  0  0  0
  7  9  1  0  0  0  0
  7 10  1  0  0  0  0
  7 16  2  0  0  0  0
  8 12  2  0  0  0  0
  8 13  1  0  0  0  0
 10 18  2  0  0  0  0
 11 14  2  0  0  0  0
 11 15  1  0  0  0  0
 11 19  1  0  0  0  0
 12 14  1  0  0  0  0
 12 33  1  0  0  0  0
 13 15  2  0  0  0  0
 13 34  1  0  0  0  0
 14 35  1  0  0  0  0
 15 36  1  0  0  0  0
 16 20  1  0  0  0  0
 16 37  1  0  0  0  0
 17 21  2  0  0  0  0
 17 23  1  0  0  0  0
 17 26  1  0  0  0  0
 18 24  1  0  0  0  0
 18 38  1  0  0  0  0
 19 25  1  0  0  0  0
 20 24  2  0  0  0  0
 20 40  1  0  0  0  0
 21 22  1  0  0  0  0
 21 39  1  0  0  0  0
 22 27  2  0  0  0  0
 23 25  2  0  0  0  0
 23 41  1  0  0  0  0
 24 42  1  0  0  0  0
 25 44  1  0  0  0  0
 26 28  2  0  0  0  0
 26 43  1  0  0  0  0
 27 28  1  0  0  0  0
 28 45  1  0  0  0  0
 29 46  1  0  0  0  0
 30 47  1  0  0  0  0
 30 48  1  0  0  0  0
 30 49  1  0  0  0  0
 31 50  1  0  0  0  0
 31 51  1  0  0  0  0
 31 52  1  0  0  0  0
M  END
> <PUBCHEM_COMPOUND_CID>
127044901

> <PUBCHEM_CONFORMER_RMSD>
1

> <PUBCHEM_CONFORMER_DIVERSEORDER>
1
84
77
57
62
71
68
47
24
83
53
80
91
43
52
60
82
78
93
75
63
28
90
12
22
70
89
4
40
76
54
88
58
20
66
48
33
64
5
92
96
31
11
37
61
85
55
87
14
21
67
95
2
9
41
26
79
3
18
17
72
35
25
39
73
30
51
34
36
38
29
59
7
74
65
46
86
69
13
49
44
23
56
32
19
94
15
81
6
16
27
42
45
50
8
10

> <PUBCHEM_MMFF94_PARTIAL_CHARGES>
45
1 -0.36
10 0.31
11 0.09
12 -0.15
13 -0.15
14 -0.15
15 -0.15
16 -0.15
17 0.03
18 -0.15
19 0.47
2 -0.36
20 -0.15
21 -0.15
22 0.08
23 -0.18
24 -0.15
25 -0.14
26 -0.15
27 0.08
28 -0.15
29 0.47
3 -0.57
30 0.28
31 0.28
32 0.4
33 0.15
34 0.15
35 0.15
36 0.15
37 0.15
38 0.15
39 0.15
4 -0.6
40 0.15
41 0.15
42 0.15
43 0.15
44 0.15
45 0.15
46 0.15
5 -0.62
6 -0.62
8 0.1
9 0.41

> <PUBCHEM_EFFECTIVE_ROTOR_COUNT>
7

> <PUBCHEM_PHARMACOPHORE_FEATURES>
10
1 1 acceptor
1 2 acceptor
1 3 acceptor
1 4 donor
3 4 5 9 cation
3 5 6 29 cation
6 17 21 22 26 27 28 rings
6 5 6 7 9 10 29 rings
6 7 10 16 18 20 24 rings
6 8 11 12 13 14 15 rings

> <PUBCHEM_HEAVY_ATOM_COUNT>
31

> <PUBCHEM_ATOM_DEF_STEREO_COUNT>
0

> <PUBCHEM_ATOM_UDEF_STEREO_COUNT>
0

> <PUBCHEM_BOND_DEF_STEREO_COUNT>
1

> <PUBCHEM_BOND_UDEF_STEREO_COUNT>
0

> <PUBCHEM_ISOTOPIC_ATOM_COUNT>
0

> <PUBCHEM_COMPONENT_COUNT>
1

> <PUBCHEM_CACTVS_TAUTO_COUNT>
9

> <PUBCHEM_CONFORMER_ID>
07928D2500000001

> <PUBCHEM_MMFF94_ENERGY>
132.6392

> <PUBCHEM_FEATURE_SELFOVERLAP>
50.923

> <PUBCHEM_SHAPE_FINGERPRINT>
10190108 129 16732976506281808866
10883706 163 18260264140334130037
10930396 42 16660645151508664013
11136131 41 18262797337535780138
11181472 205 18261397772083652668
11409948 8 18261969505603845595
11421887 21 18272661107846045584
11456790 92 18260543455506208816
11475781 23 18202293506677470974
12013929 29 17691401911850145461
12107183 9 18260542347457737602
12144603 126 18114462366916334904
125118 31 18335703875425690862
12522641 68 18202001049280546215
13167372 99 18335984246643376622
13248334 5 18122626054793572863
14117953 113 18411707573888654180
15183329 4 18411991277457642116
15289351 153 18341890745798716050
15419008 145 18187354395168186680
15684393 108 12967130505914313781
15840311 113 18333731278324904006
16989713 51 17344901044030577199
16991971 28 10809340023468334002
1818759 1 10663816404183996029
18608769 82 18340210803964764507
19053607 189 18269543958579887657
19302320 297 18187370955918632012
19611394 137 17825120439816165699
20554085 129 17846769724940960218
20715895 44 18411142454881919270
21150785 3 14261354669580962930
21298829 104 18411420630949005396
21591340 7 18335977649289189287
21774942 28 18202287979070566600
21781051 124 12468630600736491832
22122407 14 18188781664107705040
23522609 53 17315086682710297822
2748736 6 18411136948026749735
2838139 119 18342453798256345870
2851757 15 18410295813216360755
306946 40 16988550352407534136
3711267 37 18200886072108007041
3918712 181 18410569553405149977
393628 179 18200864158198315129
4073 2 18334861615376387131
4144715 1 18043262425501254818
44249763 50 17417235658567419078
44555599 121 18261677073179404164
44802255 64 17489589004275143623
465052 167 10881395444331931210
54039377 194 10087639321474664987
5470011 282 12391508698357477234
563151 74 17095241397529196163
5776283 40 18272086132421481001
5911458 16 18334293171478396384
5937810 71 17632303324949288057
6299153 45 18334011666848319362
636775 72 18342454898037161760
636775 8 7997703021546394024
6371009 1 18412269445325846568
99344 41 18410011022403000164

> <PUBCHEM_SHAPE_MULTIPOLES>
605.41
28.88
3.73
0.92
7.31
0.34
-0.03
-22.74
2.53
1.96
-0.2
-1.13
-0.28
-1.11

> <PUBCHEM_SHAPE_SELFOVERLAP>
1329.995

> <PUBCHEM_SHAPE_VOLUME>
323.8

> <PUBCHEM_COORDINATE_TYPE>
2
5
10

$$$$