6
 OpenBabel03302012423D

 78 83  0  0  0  0  0  0  0  0999 V2000
    1.0703    0.8344    0.8690 C   0  0  0  0  0  0  0  0  0  0  0  0
    2.5375    0.7593    0.7950 N   0  3  0  0  0  0  0  0  0  0  0  0
    3.2245    0.0778    1.8931 C   0  0  0  0  0  0  0  0  0  0  0  0
    3.2047    1.3372   -0.1827 C   0  0  0  0  0  0  0  0  0  0  0  0
    4.6141    1.2402   -0.3179 C   0  0  0  0  0  0  0  0  0  0  0  0
    5.3379    1.9703   -1.2819 C   0  0  0  0  0  0  0  0  0  0  0  0
    4.7178    2.9179   -2.1362 C   0  0  0  0  0  0  0  0  0  0  0  0
    5.4272    3.8589   -3.0114 C   0  0  0  0  0  0  0  0  0  0  0  0
    6.9442    3.8511   -3.0043 C   0  0  0  0  0  0  0  0  0  0  0  0
    7.7852    3.9616   -4.1202 C   0  0  0  0  0  0  0  0  0  0  0  0
    9.1524    3.8676   -3.8220 C   0  0  0  0  0  0  0  0  0  0  0  0
    9.4243    3.6838   -2.4705 C   0  0  0  0  0  0  0  0  0  0  0  0
   10.7772    3.5226   -1.8660 C   0  0  0  0  0  0  0  0  0  0  0  0
   10.9553    3.8335   -0.4666 S   0  0  0  0  0  0  0  0  0  0  0  0
   11.8689    2.9682   -2.6314 N   0  0  0  0  0  0  0  0  0  0  0  0
   11.6262    1.9537   -3.6550 C   0  0  0  0  0  0  0  0  0  0  0  0
   12.3617    0.6639   -3.2612 C   0  0  0  0  0  0  0  0  0  0  0  0
   13.8534    0.9497   -3.0614 C   0  0  0  0  0  0  0  0  0  0  0  0
   14.0370    2.0265   -1.9826 C   0  0  0  0  0  0  0  0  0  0  0  0
   13.2698    3.2961   -2.3695 C   0  0  0  0  0  0  0  0  0  0  0  0
    7.9532    3.6941   -1.6550 S   0  0  0  0  0  0  0  0  0  0  0  0
    4.7191    4.8564   -3.8301 C   0  0  0  0  0  0  0  0  0  0  0  0
    5.4158    5.9014   -4.5253 C   0  0  0  0  0  0  0  0  0  0  0  0
    4.7439    6.9044   -5.2626 C   0  0  0  0  0  0  0  0  0  0  0  0
    3.3430    6.8891   -5.3368 C   0  0  0  0  0  0  0  0  0  0  0  0
    2.6177    5.9002   -4.6660 C   0  0  0  0  0  0  0  0  0  0  0  0
    3.3019    4.9135   -3.9326 C   0  0  0  0  0  0  0  0  0  0  0  0
    2.3738    3.8455   -3.0552 S   0  0  0  0  0  0  0  0  0  0  0  0
    3.2427    2.8773   -2.0641 C   0  0  0  0  0  0  0  0  0  0  0  0
    2.5418    2.1217   -1.1425 C   0  0  0  0  0  0  0  0  0  0  0  0
    1.0895    5.9369   -4.6779 C   0  0  0  0  0  0  0  0  0  0  0  0
    0.5056    7.2404   -5.2269 C   0  0  0  0  0  0  0  0  0  0  0  0
    1.2733    7.6608   -6.4650 C   0  0  0  0  0  0  0  0  0  0  0  0
    2.6489    7.9045   -6.0549 N   0  0  0  0  0  0  0  0  0  0  0  0
    3.2902    9.1940   -6.2393 C   0  0  0  0  0  0  0  0  0  0  0  0
    4.6860    8.9746   -6.8101 C   0  0  0  0  0  0  0  0  0  0  0  0
    5.5327    8.0303   -5.9206 C   0  0  0  0  0  0  0  0  0  0  0  0
    1.0516   -3.3936   -1.2553 F   0  0  0  0  0  0  0  0  0  0  0  0
    2.5118   -2.5741   -0.8832 P   0  5  0  0  0  0  0  0  0  0  0  0
    1.9200   -1.1640   -1.6658 F   0  0  0  0  0  0  0  0  0  0  0  0
    3.1076   -3.9760   -0.0918 F   0  0  0  0  0  0  0  0  0  0  0  0
    1.8151   -2.0571    0.5977 F   0  0  0  0  0  0  0  0  0  0  0  0
    3.2011   -3.1020   -2.3612 F   0  0  0  0  0  0  0  0  0  0  0  0
    3.9774   -1.7597   -0.5265 F   0  0  0  0  0  0  0  0  0  0  0  0
    0.6517    0.2927    1.7441 H   0  0  0  0  0  0  0  0  0  0  0  0
    0.6104    0.3739   -0.0348 H   0  0  0  0  0  0  0  0  0  0  0  0
    0.7382    1.8914    0.9545 H   0  0  0  0  0  0  0  0  0  0  0  0
    2.5166   -0.3116    2.6551 H   0  0  0  0  0  0  0  0  0  0  0  0
    3.8849    0.8014    2.4108 H   0  0  0  0  0  0  0  0  0  0  0  0
    3.8309   -0.7764    1.5494 H   0  0  0  0  0  0  0  0  0  0  0  0
    5.1914    0.6013    0.3357 H   0  0  0  0  0  0  0  0  0  0  0  0
    6.3947    1.7915   -1.2790 H   0  0  0  0  0  0  0  0  0  0  0  0
    7.4364    4.0833   -5.1373 H   0  0  0  0  0  0  0  0  0  0  0  0
    9.9219    3.9371   -4.5806 H   0  0  0  0  0  0  0  0  0  0  0  0
   11.9952    2.3175   -4.6378 H   0  0  0  0  0  0  0  0  0  0  0  0
   10.5518    1.6968   -3.7518 H   0  0  0  0  0  0  0  0  0  0  0  0
   12.2199   -0.1108   -4.0451 H   0  0  0  0  0  0  0  0  0  0  0  0
   11.9335    0.2761   -2.3089 H   0  0  0  0  0  0  0  0  0  0  0  0
   14.2929    1.2989   -4.0216 H   0  0  0  0  0  0  0  0  0  0  0  0
   14.3781    0.0192   -2.7547 H   0  0  0  0  0  0  0  0  0  0  0  0
   15.1165    2.2595   -1.8590 H   0  0  0  0  0  0  0  0  0  0  0  0
   13.6449    1.6471   -1.0139 H   0  0  0  0  0  0  0  0  0  0  0  0
   13.7121    3.7214   -3.2973 H   0  0  0  0  0  0  0  0  0  0  0  0
   13.3852    4.0600   -1.5730 H   0  0  0  0  0  0  0  0  0  0  0  0
    6.4839    6.0080   -4.4748 H   0  0  0  0  0  0  0  0  0  0  0  0
    1.4659    2.2268   -1.1488 H   0  0  0  0  0  0  0  0  0  0  0  0
    0.6798    5.8442   -3.6472 H   0  0  0  0  0  0  0  0  0  0  0  0
    0.7453    5.0655   -5.2753 H   0  0  0  0  0  0  0  0  0  0  0  0
    0.6273    8.0489   -4.4710 H   0  0  0  0  0  0  0  0  0  0  0  0
   -0.5798    7.1033   -5.4202 H   0  0  0  0  0  0  0  0  0  0  0  0
    0.8130    8.5681   -6.9078 H   0  0  0  0  0  0  0  0  0  0  0  0
    1.2363    6.8416   -7.2182 H   0  0  0  0  0  0  0  0  0  0  0  0
    2.6895    9.8528   -6.9017 H   0  0  0  0  0  0  0  0  0  0  0  0
    3.3789    9.6891   -5.2471 H   0  0  0  0  0  0  0  0  0  0  0  0
    5.2156    9.9471   -6.9308 H   0  0  0  0  0  0  0  0  0  0  0  0
    4.5570    8.5225   -7.8143 H   0  0  0  0  0  0  0  0  0  0  0  0
    5.9933    8.6107   -5.0927 H   0  0  0  0  0  0  0  0  0  0  0  0
    6.3528    7.6291   -6.5559 H   0  0  0  0  0  0  0  0  0  0  0  0
  1  2  1  0  0  0  0
  1 45  1  0  0  0  0
  1 46  1  0  0  0  0
  1 47  1  0  0  0  0
  2  3  1  0  0  0  0
  2  4  2  0  0  0  0
  3 48  1  0  0  0  0
  3 49  1  0  0  0  0
  3 50  1  0  0  0  0
  4  5  1  0  0  0  0
  4 30  1  0  0  0  0
  5  6  2  0  0  0  0
  5 51  1  0  0  0  0
  6  7  1  0  0  0  0
  6 52  1  0  0  0  0
  7  8  2  0  0  0  0
  7 29  1  0  0  0  0
  8  9  1  0  0  0  0
  8 22  1  0  0  0  0
  9 10  2  0  0  0  0
  9 21  1  0  0  0  0
 10 11  1  0  0  0  0
 10 53  1  0  0  0  0
 11 12  2  0  0  0  0
 11 54  1  0  0  0  0
 12 13  1  0  0  0  0
 12 21  1  0  0  0  0
 13 14  2  0  0  0  0
 13 15  1  0  0  0  0
 15 16  1  0  0  0  0
 15 20  1  0  0  0  0
 16 17  1  0  0  0  0
 16 55  1  0  0  0  0
 16 56  1  0  0  0  0
 17 18  1  0  0  0  0
 17 57  1  0  0  0  0
 17 58  1  0  0  0  0
 18 19  1  0  0  0  0
 18 59  1  0  0  0  0
 18 60  1  0  0  0  0
 19 20  1  0  0  0  0
 19 61  1  0  0  0  0
 19 62  1  0  0  0  0
 20 63  1  0  0  0  0
 20 64  1  0  0  0  0
 22 23  1  0  0  0  0
 22 27  2  0  0  0  0
 23 24  2  0  0  0  0
 23 65  1  0  0  0  0
 24 25  1  0  0  0  0
 24 37  1  0  0  0  0
 25 26  2  0  0  0  0
 25 34  1  0  0  0  0
 26 27  1  0  0  0  0
 26 31  1  0  0  0  0
 27 28  1  0  0  0  0
 28 29  1  0  0  0  0
 29 30  2  0  0  0  0
 30 66  1  0  0  0  0
 31 32  1  0  0  0  0
 31 67  1  0  0  0  0
 31 68  1  0  0  0  0
 32 33  1  0  0  0  0
 32 69  1  0  0  0  0
 32 70  1  0  0  0  0
 33 34  1  0  0  0  0
 33 71  1  0  0  0  0
 33 72  1  0  0  0  0
 34 35  1  0  0  0  0
 35 36  1  0  0  0  0
 35 73  1  0  0  0  0
 35 74  1  0  0  0  0
 36 37  1  0  0  0  0
 36 75  1  0  0  0  0
 36 76  1  0  0  0  0
 37 77  1  0  0  0  0
 37 78  1  0  0  0  0
 38 39  1  0  0  0  0
 39 40  1  0  0  0  0
 39 41  1  0  0  0  0
 39 42  1  0  0  0  0
 39 43  1  0  0  0  0
 39 44  1  0  0  0  0
M  CHG  2   2   1  39  -1
M  END
$$$$