42
 OpenBabel03292021453D

196196  0  0  1  0  0  0  0  0999 V2000
    2.1392   -2.4866   -0.5366 C   0  0  0  0  0  0  0  0  0  0  0  0
    2.6172   -1.7605    0.6805 C   0  0  0  0  0  0  0  0  0  0  0  0
    3.6228   -2.1979    1.4625 C   0  0  0  0  0  0  0  0  0  0  0  0
    4.2178   -1.4257    2.6443 C   0  0  0  0  0  0  0  0  0  0  0  0
    5.7992   -1.2918    2.5647 C   0  0  1  0  0  0  0  0  0  0  0  0
    5.9490   -0.3035    1.3622 C   0  0  0  0  0  0  0  0  0  0  0  0
    6.5452   -0.6374    3.8085 C   0  0  1  0  0  0  0  0  0  0  0  0
    5.5603    0.2588    4.3402 O   0  0  0  0  0  0  0  0  0  0  0  0
    7.7124   -1.2149    4.9070 C   0  0  1  0  0  0  0  0  0  0  0  0
    7.8492   -2.3214    6.1730 C   0  0  0  0  0  0  0  0  0  0  0  0
    7.1792   -2.3866    7.2097 O   0  0  0  0  0  0  0  0  0  0  0  0
    8.5740   -3.4614    6.2798 N   0  0  0  0  0  0  0  0  0  0  0  0
    7.8256   -4.5562    5.7482 C   0  0  1  0  0  0  0  0  0  0  0  0
    7.4300   -5.8682    6.5172 C   0  0  0  0  0  0  0  0  0  0  0  0
    8.6064   -6.8517    6.6340 C   0  0  0  0  0  0  0  0  0  0  0  0
    6.6878   -5.8462    7.8579 C   0  0  0  0  0  0  0  0  0  0  0  0
    6.6875   -4.0617    4.8452 C   0  0  0  0  0  0  0  0  0  0  0  0
    6.8040   -4.4429    3.6659 O   0  0  0  0  0  0  0  0  0  0  0  0
    5.5399   -3.3120    5.2384 N   0  0  0  0  0  0  0  0  0  0  0  0
    4.4758   -3.9752    4.4850 C   0  0  0  0  0  0  0  0  0  0  0  0
    5.0371   -2.1958    6.4453 C   0  0  0  0  0  0  0  0  0  0  0  0
    5.6298   -0.6807    7.2790 C   0  0  0  0  0  0  0  0  0  0  0  0
    5.4832    0.4123    6.7110 O   0  0  0  0  0  0  0  0  0  0  0  0
    6.3987   -0.5955    8.4950 N   0  0  0  0  0  0  0  0  0  0  0  0
    6.3465   -1.6540    9.4849 C   0  0  0  0  0  0  0  0  0  0  0  0
    7.2107    0.6670    8.8781 C   0  0  2  0  0  0  0  0  0  0  0  0
    8.6337    0.4954    9.6301 C   0  0  0  0  0  0  0  0  0  0  0  0
    9.9723   -0.0271    9.0348 C   0  0  0  0  0  0  0  0  0  0  0  0
   11.1420    0.1242   10.0319 C   0  0  0  0  0  0  0  0  0  0  0  0
    9.9516   -1.4901    8.6659 C   0  0  0  0  0  0  0  0  0  0  0  0
    6.3803    1.4110    9.9793 C   0  0  0  0  0  0  0  0  0  0  0  0
    6.2029    0.8844   11.0931 O   0  0  0  0  0  0  0  0  0  0  0  0
    5.8233    2.6335    9.8965 N   0  0  0  0  0  0  0  0  0  0  0  0
    5.8136    3.7274    8.9231 C   0  0  2  0  0  0  0  0  0  0  0  0
    5.3252    3.3399    7.5247 C   0  0  0  0  0  0  0  0  0  0  0  0
    5.2567    4.5539    6.5968 C   0  0  0  0  0  0  0  0  0  0  0  0
    3.9334    2.6913    7.6035 C   0  0  0  0  0  0  0  0  0  0  0  0
    7.2353    4.3891    8.9597 C   0  0  0  0  0  0  0  0  0  0  0  0
    8.1747    3.7743    8.4867 O   0  0  0  0  0  0  0  0  0  0  0  0
    7.3868    5.5551    9.6983 N   0  0  0  0  0  0  0  0  0  0  0  0
    6.3459    6.5733    9.8231 C   0  0  0  0  0  0  0  0  0  0  0  0
    8.7791    5.9523   10.0434 C   0  0  2  0  0  0  0  0  0  0  0  0
    8.9727    6.1089   11.5704 C   0  0  0  0  0  0  0  0  0  0  0  0
    8.7437    4.8244   12.3938 C   0  0  0  0  0  0  0  0  0  0  0  0
    9.6934    3.6873   12.0124 C   0  0  0  0  0  0  0  0  0  0  0  0
    8.9146    5.1366   13.8840 C   0  0  0  0  0  0  0  0  0  0  0  0
    9.2097    7.2727    9.3579 C   0  0  0  0  0  0  0  0  0  0  0  0
    8.6470    8.3462    9.6006 O   0  0  0  0  0  0  0  0  0  0  0  0
   10.1931    7.3017    8.4200 N   0  0  0  0  0  0  0  0  0  0  0  0
   11.0874    6.2367    7.9604 C   0  0  1  0  0  0  0  0  0  0  0  0
   11.3228    6.4538    6.4867 C   0  0  0  0  0  0  0  0  0  0  0  0
   12.2760    6.0906    8.9651 C   0  0  0  0  0  0  0  0  0  0  0  0
   12.0204    6.0915   10.1812 O   0  0  0  0  0  0  0  0  0  0  0  0
   13.5728    5.7892    8.6779 N   0  0  0  0  0  0  0  0  0  0  0  0
   14.4914    6.1223    7.5692 C   0  0  2  0  0  0  0  0  0  0  0  0
   14.4681    7.6277    7.3163 C   0  0  0  0  0  0  0  0  0  0  0  0
   14.4303    5.2451    6.2883 C   0  0  0  0  0  0  0  0  0  0  0  0
   14.0489    5.6958    5.2195 O   0  0  0  0  0  0  0  0  0  0  0  0
   14.7645    3.8935    6.3725 N   0  0  0  0  0  0  0  0  0  0  0  0
   16.1127    3.5653    6.8447 C   0  0  0  0  0  0  0  0  0  0  0  0
   14.1877    2.9452    5.3605 C   0  0  1  0  0  0  0  0  0  0  0  0
   12.6606    2.9777    5.4006 C   0  0  0  0  0  0  0  0  0  0  0  0
   11.8976    2.4031    6.5955 C   0  0  0  0  0  0  0  0  0  0  0  0
   12.3939    2.8448    7.9463 C   0  0  0  0  0  0  0  0  0  0  0  0
   10.4292    2.8059    6.3978 C   0  0  0  0  0  0  0  0  0  0  0  0
   14.8495    3.0803    3.9389 C   0  0  0  0  0  0  0  0  0  0  0  0
   16.0744    3.2594    3.8453 O   0  0  0  0  0  0  0  0  0  0  0  0
   14.2158    2.9012    2.7445 N   0  0  0  0  0  0  0  0  0  0  0  0
   12.8099    2.6563    2.3189 C   0  0  1  0  0  0  0  0  0  0  0  0
   12.6103    3.2380    0.9059 C   0  0  0  0  0  0  0  0  0  0  0  0
   12.9589    4.7441    0.6728 C   0  0  0  0  0  0  0  0  0  0  0  0
   14.4404    5.1121    0.7818 C   0  0  0  0  0  0  0  0  0  0  0  0
   12.4690    5.1540   -0.7266 C   0  0  0  0  0  0  0  0  0  0  0  0
   12.5314    1.0958    2.6783 C   0  0  0  0  0  0  0  0  0  0  0  0
   13.2719    0.6316    3.5618 O   0  0  0  0  0  0  0  0  0  0  0  0
   11.4591    0.3132    2.2522 N   0  0  0  0  0  0  0  0  0  0  0  0
   10.7131    0.5864    1.0317 C   0  0  0  0  0  0  0  0  0  0  0  0
   11.1317   -1.0725    2.8449 C   0  0  1  0  0  0  0  0  0  0  0  0
   12.0834   -1.7465    3.8975 C   0  0  0  0  0  0  0  0  0  0  0  0
   11.5337   -3.0723    4.4716 C   0  0  0  0  0  0  0  0  0  0  0  0
   13.4892   -2.0575    3.3540 C   0  0  0  0  0  0  0  0  0  0  0  0
    9.5896   -1.2276    3.2074 C   0  0  0  0  0  0  0  0  0  0  0  0
    8.8143   -1.6002    2.3237 O   0  0  0  0  0  0  0  0  0  0  0  0
    9.1105   -0.8962    4.4650 N   0  0  0  0  0  0  0  0  0  0  0  0
    9.9424   -0.2949    5.4751 C   0  0  0  0  0  0  0  0  0  0  0  0
    1.1106   -2.1948   -0.7774 H   0  0  0  0  0  0  0  0  0  0  0  0
    2.1541   -3.5740   -0.4114 H   0  0  0  0  0  0  0  0  0  0  0  0
    2.7644   -2.2213   -1.3960 H   0  0  0  0  0  0  0  0  0  0  0  0
    2.1323   -0.8142    0.9001 H   0  0  0  0  0  0  0  0  0  0  0  0
    4.0920   -3.1462    1.2290 H   0  0  0  0  0  0  0  0  0  0  0  0
    3.8958   -1.8906    3.5701 H   0  0  0  0  0  0  0  0  0  0  0  0
    3.7461   -0.4336    2.6867 H   0  0  0  0  0  0  0  0  0  0  0  0
    6.2644   -2.2437    2.3001 H   0  0  0  0  0  0  0  0  0  0  0  0
    5.3839    0.6213    1.5544 H   0  0  0  0  0  0  0  0  0  0  0  0
    5.5541   -0.7310    0.4349 H   0  0  0  0  0  0  0  0  0  0  0  0
    6.9858   -0.0216    1.1773 H   0  0  0  0  0  0  0  0  0  0  0  0
    7.2000    0.0894    3.3121 H   0  0  0  0  0  0  0  0  0  0  0  0
    5.9831    0.9173    4.9228 H   0  0  0  0  0  0  0  0  0  0  0  0
    7.5497   -0.3730    5.5986 H   0  0  0  0  0  0  0  0  0  0  0  0
    8.5944   -3.6373    7.2862 H   0  0  0  0  0  0  0  0  0  0  0  0
    8.5927   -4.9086    5.0449 H   0  0  0  0  0  0  0  0  0  0  0  0
    6.7237   -6.3667    5.8354 H   0  0  0  0  0  0  0  0  0  0  0  0
    9.2307   -6.6414    7.5075 H   0  0  0  0  0  0  0  0  0  0  0  0
    9.2392   -6.8356    5.7421 H   0  0  0  0  0  0  0  0  0  0  0  0
    8.2277   -7.8777    6.7323 H   0  0  0  0  0  0  0  0  0  0  0  0
    7.3370   -5.5986    8.7034 H   0  0  0  0  0  0  0  0  0  0  0  0
    6.3061   -6.8623    8.0620 H   0  0  0  0  0  0  0  0  0  0  0  0
    5.8165   -5.1886    7.8585 H   0  0  0  0  0  0  0  0  0  0  0  0
    3.4860   -3.6298    4.7539 H   0  0  0  0  0  0  0  0  0  0  0  0
    4.6498   -3.8557    3.4065 H   0  0  0  0  0  0  0  0  0  0  0  0
    4.5442   -5.0611    4.6474 H   0  0  0  0  0  0  0  0  0  0  0  0
    4.2762   -1.6856    5.8192 H   0  0  0  0  0  0  0  0  0  0  0  0
    4.4470   -2.7661    7.1635 H   0  0  0  0  0  0  0  0  0  0  0  0
    7.2503   -2.2647    9.4295 H   0  0  0  0  0  0  0  0  0  0  0  0
    5.4572   -2.2624    9.3328 H   0  0  0  0  0  0  0  0  0  0  0  0
    6.3296   -1.2495   10.4930 H   0  0  0  0  0  0  0  0  0  0  0  0
    7.3604    1.2940    7.9938 H   0  0  0  0  0  0  0  0  0  0  0  0
    8.8897    1.5190    9.9435 H   0  0  0  0  0  0  0  0  0  0  0  0
    8.4726   -0.0567   10.5623 H   0  0  0  0  0  0  0  0  0  0  0  0
   10.2295    0.5606    8.1540 H   0  0  0  0  0  0  0  0  0  0  0  0
   11.0059   -0.5259   10.9035 H   0  0  0  0  0  0  0  0  0  0  0  0
   11.2526    1.1500   10.3900 H   0  0  0  0  0  0  0  0  0  0  0  0
   12.0918   -0.1653    9.5597 H   0  0  0  0  0  0  0  0  0  0  0  0
    9.7380   -2.1385    9.5188 H   0  0  0  0  0  0  0  0  0  0  0  0
   10.9005   -1.8132    8.2204 H   0  0  0  0  0  0  0  0  0  0  0  0
    9.1856   -1.6181    7.9305 H   0  0  0  0  0  0  0  0  0  0  0  0
    5.3987    2.8553   10.7884 H   0  0  0  0  0  0  0  0  0  0  0  0
    5.0602    4.3951    9.3383 H   0  0  0  0  0  0  0  0  0  0  0  0
    6.0346    2.6484    7.0707 H   0  0  0  0  0  0  0  0  0  0  0  0
    4.5105    5.2775    6.9403 H   0  0  0  0  0  0  0  0  0  0  0  0
    4.9851    4.2381    5.5837 H   0  0  0  0  0  0  0  0  0  0  0  0
    6.2238    5.0618    6.5330 H   0  0  0  0  0  0  0  0  0  0  0  0
    3.1977    3.3779    8.0366 H   0  0  0  0  0  0  0  0  0  0  0  0
    3.9399    1.7907    8.2264 H   0  0  0  0  0  0  0  0  0  0  0  0
    3.5801    2.4026    6.6085 H   0  0  0  0  0  0  0  0  0  0  0  0
    5.3345    6.1880    9.7566 H   0  0  0  0  0  0  0  0  0  0  0  0
    6.4586    7.2871    8.9986 H   0  0  0  0  0  0  0  0  0  0  0  0
    6.4363    7.0948   10.7826 H   0  0  0  0  0  0  0  0  0  0  0  0
    9.4592    5.1654    9.7285 H   0  0  0  0  0  0  0  0  0  0  0  0
    9.9874    6.4791   11.7659 H   0  0  0  0  0  0  0  0  0  0  0  0
    8.3045    6.8927   11.9494 H   0  0  0  0  0  0  0  0  0  0  0  0
    7.7136    4.4824   12.2362 H   0  0  0  0  0  0  0  0  0  0  0  0
   10.7367    3.9535   12.2123 H   0  0  0  0  0  0  0  0  0  0  0  0
    9.6112    3.4235   10.9566 H   0  0  0  0  0  0  0  0  0  0  0  0
    9.4597    2.7843   12.5872 H   0  0  0  0  0  0  0  0  0  0  0  0
    9.9447    5.4360   14.1090 H   0  0  0  0  0  0  0  0  0  0  0  0
    8.6778    4.2592   14.4947 H   0  0  0  0  0  0  0  0  0  0  0  0
    8.2512    5.9506   14.1936 H   0  0  0  0  0  0  0  0  0  0  0  0
   10.3967    8.2438    8.1120 H   0  0  0  0  0  0  0  0  0  0  0  0
   10.5423    5.2919    8.0430 H   0  0  0  0  0  0  0  0  0  0  0  0
   11.7409    7.4333    6.2530 H   0  0  0  0  0  0  0  0  0  0  0  0
   10.3799    6.3746    5.9310 H   0  0  0  0  0  0  0  0  0  0  0  0
   11.9663    5.6837    6.0983 H   0  0  0  0  0  0  0  0  0  0  0  0
   14.0533    5.6351    9.5574 H   0  0  0  0  0  0  0  0  0  0  0  0
   15.4816    5.9317    7.9894 H   0  0  0  0  0  0  0  0  0  0  0  0
   13.4554    8.0271    7.2499 H   0  0  0  0  0  0  0  0  0  0  0  0
   15.0055    7.8969    6.4039 H   0  0  0  0  0  0  0  0  0  0  0  0
   14.9396    8.1484    8.1584 H   0  0  0  0  0  0  0  0  0  0  0  0
   16.3591    4.1068    7.7592 H   0  0  0  0  0  0  0  0  0  0  0  0
   16.8468    3.8553    6.0864 H   0  0  0  0  0  0  0  0  0  0  0  0
   16.1918    2.4938    7.0470 H   0  0  0  0  0  0  0  0  0  0  0  0
   14.4806    1.9395    5.6946 H   0  0  0  0  0  0  0  0  0  0  0  0
   12.2691    2.3517    4.6212 H   0  0  0  0  0  0  0  0  0  0  0  0
   12.3099    3.9759    5.1432 H   0  0  0  0  0  0  0  0  0  0  0  0
   11.9786    1.3102    6.5725 H   0  0  0  0  0  0  0  0  0  0  0  0
   12.4998    3.9124    7.9198 H   0  0  0  0  0  0  0  0  0  0  0  0
   13.3605    2.4015    8.1985 H   0  0  0  0  0  0  0  0  0  0  0  0
   11.6865    2.6104    8.7428 H   0  0  0  0  0  0  0  0  0  0  0  0
   10.3158    3.8850    6.2840 H   0  0  0  0  0  0  0  0  0  0  0  0
    9.8122    2.4864    7.2354 H   0  0  0  0  0  0  0  0  0  0  0  0
   10.0177    2.3726    5.4822 H   0  0  0  0  0  0  0  0  0  0  0  0
   14.9082    2.8347    2.0066 H   0  0  0  0  0  0  0  0  0  0  0  0
   12.1593    3.2595    2.9554 H   0  0  0  0  0  0  0  0  0  0  0  0
   11.5380    3.1944    0.6930 H   0  0  0  0  0  0  0  0  0  0  0  0
   13.1298    2.6185    0.1667 H   0  0  0  0  0  0  0  0  0  0  0  0
   12.4072    5.3501    1.4038 H   0  0  0  0  0  0  0  0  0  0  0  0
   15.0724    4.3941    0.2502 H   0  0  0  0  0  0  0  0  0  0  0  0
   14.7633    5.1700    1.8243 H   0  0  0  0  0  0  0  0  0  0  0  0
   14.6340    6.1040    0.3557 H   0  0  0  0  0  0  0  0  0  0  0  0
   12.9541    4.5535   -1.5040 H   0  0  0  0  0  0  0  0  0  0  0  0
   12.6874    6.2084   -0.9312 H   0  0  0  0  0  0  0  0  0  0  0  0
   11.3862    5.0209   -0.8181 H   0  0  0  0  0  0  0  0  0  0  0  0
   11.1289    1.3900    0.4468 H   0  0  0  0  0  0  0  0  0  0  0  0
    9.6700    0.8041    1.2724 H   0  0  0  0  0  0  0  0  0  0  0  0
   10.7665   -0.2949    0.3842 H   0  0  0  0  0  0  0  0  0  0  0  0
   11.2338   -1.7359    1.9732 H   0  0  0  0  0  0  0  0  0  0  0  0
   12.2155   -1.0651    4.7425 H   0  0  0  0  0  0  0  0  0  0  0  0
   11.8181   -3.9305    3.8578 H   0  0  0  0  0  0  0  0  0  0  0  0
   10.4486   -3.1030    4.5492 H   0  0  0  0  0  0  0  0  0  0  0  0
   11.9324   -3.2322    5.4802 H   0  0  0  0  0  0  0  0  0  0  0  0
   13.5391   -3.0394    2.8777 H   0  0  0  0  0  0  0  0  0  0  0  0
   14.2014   -2.0534    4.1883 H   0  0  0  0  0  0  0  0  0  0  0  0
   13.8405   -1.3407    2.6098 H   0  0  0  0  0  0  0  0  0  0  0  0
   10.6610    0.3603    4.9972 H   0  0  0  0  0  0  0  0  0  0  0  0
   10.4500   -1.0736    6.0425 H   0  0  0  0  0  0  0  0  0  0  0  0
    9.3320    0.2959    6.1596 H   0  0  0  0  0  0  0  0  0  0  0  0
  1  2  1  0  0  0  0
  1 86  1  0  0  0  0
  1 87  1  0  0  0  0
  1 88  1  0  0  0  0
  2  3  2  0  0  0  0
  2 89  1  0  0  0  0
  3  4  1  0  0  0  0
  3 90  1  0  0  0  0
  4  5  1  0  0  0  0
  4 91  1  0  0  0  0
  4 92  1  0  0  0  0
  5  6  1  0  0  0  0
  5  7  1  0  0  0  0
  5 93  1  6  0  0  0
  6 94  1  0  0  0  0
  6 95  1  0  0  0  0
  6 96  1  0  0  0  0
  7  8  1  0  0  0  0
  7  9  1  0  0  0  0
  7 97  1  6  0  0  0
  8 98  1  0  0  0  0
  9 10  1  0  0  0  0
  9 84  1  0  0  0  0
  9 99  1  1  0  0  0
 10 11  2  0  0  0  0
 10 12  1  0  0  0  0
 12 13  1  0  0  0  0
 12100  1  0  0  0  0
 13 14  1  0  0  0  0
 13 17  1  0  0  0  0
 13101  1  6  0  0  0
 14 15  1  0  0  0  0
 14 16  1  0  0  0  0
 14102  1  0  0  0  0
 15103  1  0  0  0  0
 15104  1  0  0  0  0
 15105  1  0  0  0  0
 16106  1  0  0  0  0
 16107  1  0  0  0  0
 16108  1  0  0  0  0
 17 18  2  0  0  0  0
 17 19  1  0  0  0  0
 19 20  1  0  0  0  0
 19 21  1  0  0  0  0
 20109  1  0  0  0  0
 20110  1  0  0  0  0
 20111  1  0  0  0  0
 21 22  1  0  0  0  0
 21112  1  0  0  0  0
 21113  1  0  0  0  0
 22 23  2  0  0  0  0
 22 24  1  0  0  0  0
 24 25  1  0  0  0  0
 24 26  1  0  0  0  0
 25114  1  0  0  0  0
 25115  1  0  0  0  0
 25116  1  0  0  0  0
 26 31  1  0  0  0  0
 26 27  1  0  0  0  0
 26117  1  6  0  0  0
 27 28  1  0  0  0  0
 27118  1  0  0  0  0
 27119  1  0  0  0  0
 28 29  1  0  0  0  0
 28 30  1  0  0  0  0
 28120  1  0  0  0  0
 29121  1  0  0  0  0
 29122  1  0  0  0  0
 29123  1  0  0  0  0
 30124  1  0  0  0  0
 30125  1  0  0  0  0
 30126  1  0  0  0  0
 31 32  2  0  0  0  0
 31 33  1  0  0  0  0
 33 34  1  0  0  0  0
 33127  1  0  0  0  0
 34 38  1  0  0  0  0
 34 35  1  0  0  0  0
 34128  1  1  0  0  0
 35 36  1  0  0  0  0
 35 37  1  0  0  0  0
 35129  1  0  0  0  0
 36130  1  0  0  0  0
 36131  1  0  0  0  0
 36132  1  0  0  0  0
 37133  1  0  0  0  0
 37134  1  0  0  0  0
 37135  1  0  0  0  0
 38 39  2  0  0  0  0
 38 40  1  0  0  0  0
 40 41  1  0  0  0  0
 40 42  1  0  0  0  0
 41136  1  0  0  0  0
 41137  1  0  0  0  0
 41138  1  0  0  0  0
 42 47  1  0  0  0  0
 42 43  1  0  0  0  0
 42139  1  6  0  0  0
 43 44  1  0  0  0  0
 43140  1  0  0  0  0
 43141  1  0  0  0  0
 44 45  1  0  0  0  0
 44 46  1  0  0  0  0
 44142  1  0  0  0  0
 45143  1  0  0  0  0
 45144  1  0  0  0  0
 45145  1  0  0  0  0
 46146  1  0  0  0  0
 46147  1  0  0  0  0
 46148  1  0  0  0  0
 47 48  2  0  0  0  0
 47 49  1  0  0  0  0
 49 50  1  0  0  0  0
 49149  1  0  0  0  0
 50 51  1  0  0  0  0
 50 52  1  0  0  0  0
 50150  1  1  0  0  0
 51151  1  0  0  0  0
 51152  1  0  0  0  0
 51153  1  0  0  0  0
 52 53  2  0  0  0  0
 52 54  1  0  0  0  0
 54 55  1  0  0  0  0
 54154  1  0  0  0  0
 55 57  1  0  0  0  0
 55 56  1  0  0  0  0
 55155  1  1  0  0  0
 56156  1  0  0  0  0
 56157  1  0  0  0  0
 56158  1  0  0  0  0
 57 58  2  0  0  0  0
 57 59  1  0  0  0  0
 59 60  1  0  0  0  0
 59 61  1  0  0  0  0
 60159  1  0  0  0  0
 60160  1  0  0  0  0
 60161  1  0  0  0  0
 61 62  1  0  0  0  0
 61 66  1  0  0  0  0
 61162  1  1  0  0  0
 62 63  1  0  0  0  0
 62163  1  0  0  0  0
 62164  1  0  0  0  0
 63 64  1  0  0  0  0
 63 65  1  0  0  0  0
 63165  1  0  0  0  0
 64166  1  0  0  0  0
 64167  1  0  0  0  0
 64168  1  0  0  0  0
 65169  1  0  0  0  0
 65170  1  0  0  0  0
 65171  1  0  0  0  0
 66 67  2  0  0  0  0
 66 68  1  0  0  0  0
 68 69  1  0  0  0  0
 68172  1  0  0  0  0
 69 70  1  0  0  0  0
 69 74  1  0  0  0  0
 69173  1  1  0  0  0
 70 71  1  0  0  0  0
 70174  1  0  0  0  0
 70175  1  0  0  0  0
 71 72  1  0  0  0  0
 71 73  1  0  0  0  0
 71176  1  0  0  0  0
 72177  1  0  0  0  0
 72178  1  0  0  0  0
 72179  1  0  0  0  0
 73180  1  0  0  0  0
 73181  1  0  0  0  0
 73182  1  0  0  0  0
 74 75  2  0  0  0  0
 74 76  1  0  0  0  0
 76 77  1  0  0  0  0
 76 78  1  0  0  0  0
 77183  1  0  0  0  0
 77184  1  0  0  0  0
 77185  1  0  0  0  0
 78 79  1  0  0  0  0
 78 82  1  0  0  0  0
 78186  1  6  0  0  0
 79 80  1  0  0  0  0
 79 81  1  0  0  0  0
 79187  1  0  0  0  0
 80188  1  0  0  0  0
 80189  1  0  0  0  0
 80190  1  0  0  0  0
 81191  1  0  0  0  0
 81192  1  0  0  0  0
 81193  1  0  0  0  0
 82 83  2  0  0  0  0
 82 84  1  0  0  0  0
 84 85  1  0  0  0  0
 85194  1  0  0  0  0
 85195  1  0  0  0  0
 85196  1  0  0  0  0
M  END
>  <Energy>
663.429

$$$$