2094802
  -OEChem-03242010093D

 48 50  0     0  0  0  0  0  0999 V2000
    4.4971   -2.5312   -0.1957 O   0  0  0  0  0  0  0  0  0  0  0  0
    5.5896    2.1198    0.1331 O   0  0  0  0  0  0  0  0  0  0  0  0
    6.3918   -0.5299    0.0785 O   0  0  0  0  0  0  0  0  0  0  0  0
    0.6690    1.8655   -0.8512 O   0  0  0  0  0  0  0  0  0  0  0  0
    0.0638   -0.2051    0.0839 N   0  0  0  0  0  0  0  0  0  0  0  0
    2.3973    0.4312   -0.2454 C   0  0  0  0  0  0  0  0  0  0  0  0
   -4.1197   -0.0915    0.0531 C   0  0  0  0  0  0  0  0  0  0  0  0
   -1.3308   -0.1675    0.0735 C   0  0  0  0  0  0  0  0  0  0  0  0
   -5.5660   -0.0527    0.0414 C   0  0  0  0  0  0  0  0  0  0  0  0
    3.3178    1.4491   -0.1105 C   0  0  0  0  0  0  0  0  0  0  0  0
    2.7667   -0.8973   -0.2755 C   0  0  0  0  0  0  0  0  0  0  0  0
    4.1186   -1.2227   -0.1655 C   0  0  0  0  0  0  0  0  0  0  0  0
    4.6698    1.1238   -0.0005 C   0  0  0  0  0  0  0  0  0  0  0  0
    5.0703   -0.2121   -0.0280 C   0  0  0  0  0  0  0  0  0  0  0  0
    0.9566    0.7780   -0.3630 C   0  0  0  0  0  0  0  0  0  0  0  0
   -3.3889    0.9903   -0.4376 C   0  0  0  0  0  0  0  0  0  0  0  0
   -3.4560   -1.2117    0.5541 C   0  0  0  0  0  0  0  0  0  0  0  0
   -1.9946    0.9524   -0.4275 C   0  0  0  0  0  0  0  0  0  0  0  0
   -2.0616   -1.2497    0.5643 C   0  0  0  0  0  0  0  0  0  0  0  0
   -6.2587    0.4631    1.1368 C   0  0  0  0  0  0  0  0  0  0  0  0
   -6.2679   -0.5304   -1.0654 C   0  0  0  0  0  0  0  0  0  0  0  0
   -7.6530    0.5010    1.1256 C   0  0  0  0  0  0  0  0  0  0  0  0
   -7.6623   -0.4923   -1.0766 C   0  0  0  0  0  0  0  0  0  0  0  0
   -8.3547    0.0233    0.0189 C   0  0  0  0  0  0  0  0  0  0  0  0
    4.5611   -3.2161    1.0536 C   0  0  0  0  0  0  0  0  0  0  0  0
    5.9097    2.5324    1.4603 C   0  0  0  0  0  0  0  0  0  0  0  0
    7.1353   -0.6198   -1.1348 C   0  0  0  0  0  0  0  0  0  0  0  0
    3.0154    2.4923   -0.0829 H   0  0  0  0  0  0  0  0  0  0  0  0
    2.0602   -1.7079   -0.4232 H   0  0  0  0  0  0  0  0  0  0  0  0
    0.4461   -1.0440    0.5106 H   0  0  0  0  0  0  0  0  0  0  0  0
   -3.8917    1.8706   -0.8317 H   0  0  0  0  0  0  0  0  0  0  0  0
   -4.0105   -2.0639    0.9401 H   0  0  0  0  0  0  0  0  0  0  0  0
   -1.5012    1.8282   -0.8243 H   0  0  0  0  0  0  0  0  0  0  0  0
   -1.5579   -2.1293    0.9574 H   0  0  0  0  0  0  0  0  0  0  0  0
   -5.7273    0.8397    2.0076 H   0  0  0  0  0  0  0  0  0  0  0  0
   -5.7437   -0.9357   -1.9278 H   0  0  0  0  0  0  0  0  0  0  0  0
   -8.1924    0.9025    1.9785 H   0  0  0  0  0  0  0  0  0  0  0  0
   -8.2089   -0.8642   -1.9383 H   0  0  0  0  0  0  0  0  0  0  0  0
   -9.4403    0.0529    0.0101 H   0  0  0  0  0  0  0  0  0  0  0  0
    7.1338    0.3406   -1.6599 H   0  0  0  0  0  0  0  0  0  0  0  0
    6.7249   -1.4018   -1.7813 H   0  0  0  0  0  0  0  0  0  0  0  0
    8.1676   -0.8794   -0.8850 H   0  0  0  0  0  0  0  0  0  0  0  0
    3.5750   -3.2403    1.5282 H   0  0  0  0  0  0  0  0  0  0  0  0
    5.2869   -2.7380    1.7188 H   0  0  0  0  0  0  0  0  0  0  0  0
    4.8837   -4.2436    0.8648 H   0  0  0  0  0  0  0  0  0  0  0  0
    6.3256    1.6980    2.0338 H   0  0  0  0  0  0  0  0  0  0  0  0
    5.0217    2.9286    1.9631 H   0  0  0  0  0  0  0  0  0  0  0  0
    6.6609    3.3246    1.4010 H   0  0  0  0  0  0  0  0  0  0  0  0
  1 12  1  0  0  0  0
  1 25  1  0  0  0  0
  2 13  1  0  0  0  0
  2 26  1  0  0  0  0
  3 14  1  0  0  0  0
  3 27  1  0  0  0  0
  4 15  2  0  0  0  0
  5  8  1  0  0  0  0
  5 15  1  0  0  0  0
  5 30  1  0  0  0  0
  6 10  2  0  0  0  0
  6 11  1  0  0  0  0
  6 15  1  0  0  0  0
  7  9  1  0  0  0  0
  7 16  2  0  0  0  0
  7 17  1  0  0  0  0
  8 18  2  0  0  0  0
  8 19  1  0  0  0  0
  9 20  2  0  0  0  0
  9 21  1  0  0  0  0
 10 13  1  0  0  0  0
 10 28  1  0  0  0  0
 11 12  2  0  0  0  0
 11 29  1  0  0  0  0
 12 14  1  0  0  0  0
 13 14  2  0  0  0  0
 16 18  1  0  0  0  0
 16 31  1  0  0  0  0
 17 19  2  0  0  0  0
 17 32  1  0  0  0  0
 18 33  1  0  0  0  0
 19 34  1  0  0  0  0
 20 22  1  0  0  0  0
 20 35  1  0  0  0  0
 21 23  2  0  0  0  0
 21 36  1  0  0  0  0
 22 24  2  0  0  0  0
 22 37  1  0  0  0  0
 23 24  1  0  0  0  0
 23 38  1  0  0  0  0
 24 39  1  0  0  0  0
 25 43  1  0  0  0  0
 25 44  1  0  0  0  0
 25 45  1  0  0  0  0
 26 46  1  0  0  0  0
 26 47  1  0  0  0  0
 26 48  1  0  0  0  0
 27 40  1  0  0  0  0
 27 41  1  0  0  0  0
 27 42  1  0  0  0  0
M  END
> <PUBCHEM_COMPOUND_CID>
2094802

> <PUBCHEM_CONFORMER_RMSD>
0.8

> <PUBCHEM_CONFORMER_DIVERSEORDER>
1
3
2
5
4
6

> <PUBCHEM_MMFF94_PARTIAL_CHARGES>
37
1 -0.36
10 -0.15
11 -0.15
12 0.08
13 0.08
14 0.08
15 0.54
16 -0.15
17 -0.15
18 -0.15
19 -0.15
2 -0.36
20 -0.15
21 -0.15
22 -0.15
23 -0.15
24 -0.15
25 0.28
26 0.28
27 0.28
28 0.15
29 0.15
3 -0.36
30 0.37
31 0.15
32 0.15
33 0.15
34 0.15
35 0.15
36 0.15
37 0.15
38 0.15
39 0.15
4 -0.57
5 -0.55
6 0.09
8 0.12

> <PUBCHEM_EFFECTIVE_ROTOR_COUNT>
7

> <PUBCHEM_PHARMACOPHORE_FEATURES>
8
1 1 acceptor
1 2 acceptor
1 3 acceptor
1 4 acceptor
1 5 donor
6 6 10 11 12 13 14 rings
6 7 8 16 17 18 19 rings
6 9 20 21 22 23 24 rings

> <PUBCHEM_HEAVY_ATOM_COUNT>
27

> <PUBCHEM_ATOM_DEF_STEREO_COUNT>
0

> <PUBCHEM_ATOM_UDEF_STEREO_COUNT>
0

> <PUBCHEM_BOND_DEF_STEREO_COUNT>
0

> <PUBCHEM_BOND_UDEF_STEREO_COUNT>
0

> <PUBCHEM_ISOTOPIC_ATOM_COUNT>
0

> <PUBCHEM_COMPONENT_COUNT>
1

> <PUBCHEM_CACTVS_TAUTO_COUNT>
2

> <PUBCHEM_CONFORMER_ID>
001FF6D200000001

> <PUBCHEM_MMFF94_ENERGY>
122.388

> <PUBCHEM_FEATURE_SELFOVERLAP>
40.607

> <PUBCHEM_SHAPE_FINGERPRINT>
10 15 17458341991466820612
10299344 5 18060420214241755935
10411042 1 18122907517955558646
10835480 77 18339078314580680857
11315181 36 17846217792084229793
11719270 70 14996275916397646505
12089408 11 17704355485942886157
12166972 35 18413109463793625633
12236239 1 17703791439818067853
12516196 113 18343581850068417241
13073987 5 18337389348935784169
13533116 47 18411981338808256954
13685833 64 18187649080709555383
13835254 42 18336825291023901156
14118638 360 18113616742408393748
14170010 4 18334295387507811348
14251764 18 18341615893197118039
14251764 46 17489590060757339630
14347424 109 18412824655589230514
14617045 38 18333456426303593926
14849402 71 17988081209773765305
15131766 46 16556197181118769280
15183329 4 18407759227253527939
15361156 5 17822303443126820519
15419008 47 17385436627362907453
1577012 14 18131071537513890393
15849732 13 16587746447474725807
16120349 18 18342452681517551489
20157964 124 18411699898391608050
21130935 74 18411984659272138243
21150785 3 14707214322418968743
21267235 1 18334020470919521540
21792934 111 18334565815770614465
21859007 373 17241024558114716581
23081809 10 17989487420746670803
23522609 53 18058192625243959209
23536379 177 18060702780387969075
23559900 14 18334295413271983041
23569943 247 18117273649965002195
255183 451 17985276175570815910
3004659 81 17458347463618886628
335352 9 18260552242677025559
3383291 50 17676493873953130827
34797466 226 17704077308831392908
3545911 37 18260831500880723540
3663271 9 18202567276567164073
397830 11 17096945765744668193
4073 2 18188776174575492003
4093350 32 17704075097165490702
5104073 3 18337668599230212360
59755656 215 17458060439750092691

> <PUBCHEM_SHAPE_MULTIPOLES>
527.19
24.36
2.16
1.04
21.61
0.63
0.11
0.25
0.59
-5.37
0.66
0.31
-0.05
0.13

> <PUBCHEM_SHAPE_SELFOVERLAP>
1143.637

> <PUBCHEM_SHAPE_VOLUME>
289.7

> <PUBCHEM_COORDINATE_TYPE>
2
5
10

$$$$