45
 OpenBabel03292021463D

196196  0  0  1  0  0  0  0  0999 V2000
    1.9437    1.9722   -0.9607 C   0  0  0  0  0  0  0  0  0  0  0  0
    2.5434    0.7094   -1.5078 C   0  0  0  0  0  0  0  0  0  0  0  0
    3.5069    0.6765   -2.4506 C   0  0  0  0  0  0  0  0  0  0  0  0
    4.2063   -0.5862   -2.9721 C   0  0  0  0  0  0  0  0  0  0  0  0
    5.7845   -0.5571   -2.8285 C   0  0  1  0  0  0  0  0  0  0  0  0
    5.9608   -0.5329   -1.2805 C   0  0  0  0  0  0  0  0  0  0  0  0
    6.6164   -1.7894   -3.4099 C   0  0  1  0  0  0  0  0  0  0  0  0
    5.7856   -2.9617   -3.2981 O   0  0  0  0  0  0  0  0  0  0  0  0
    7.7690   -1.9376   -4.6343 C   0  0  1  0  0  0  0  0  0  0  0  0
    7.8994   -1.8244   -6.2779 C   0  0  0  0  0  0  0  0  0  0  0  0
    7.2998   -2.4768   -7.1192 O   0  0  0  0  0  0  0  0  0  0  0  0
    8.6868   -1.0166   -7.0533 N   0  0  0  0  0  0  0  0  0  0  0  0
    7.8855    0.0802   -7.6014 C   0  0  1  0  0  0  0  0  0  0  0  0
    7.1312    0.1363   -8.9558 C   0  0  0  0  0  0  0  0  0  0  0  0
    7.6557    1.3213   -9.8198 C   0  0  0  0  0  0  0  0  0  0  0  0
    6.5894    2.2590  -10.3824 C   0  0  0  0  0  0  0  0  0  0  0  0
    6.9046    0.4500   -6.4840 C   0  0  0  0  0  0  0  0  0  0  0  0
    7.1943    1.4655   -5.8519 O   0  0  0  0  0  0  0  0  0  0  0  0
    5.7434   -0.3476   -6.1969 N   0  0  0  0  0  0  0  0  0  0  0  0
    4.7980    0.6841   -5.7907 C   0  0  0  0  0  0  0  0  0  0  0  0
    5.1245   -1.9219   -6.5310 C   0  0  0  0  0  0  0  0  0  0  0  0
    5.4864   -3.7098   -6.2993 C   0  0  0  0  0  0  0  0  0  0  0  0
    4.9862   -4.2521   -5.3094 O   0  0  0  0  0  0  0  0  0  0  0  0
    6.3161   -4.5413   -7.1578 N   0  0  0  0  0  0  0  0  0  0  0  0
    6.3230   -4.2943   -8.6003 C   0  0  0  0  0  0  0  0  0  0  0  0
    7.0362   -5.8219   -6.6924 C   0  0  2  0  0  0  0  0  0  0  0  0
    8.4409   -6.2389   -7.4079 C   0  0  0  0  0  0  0  0  0  0  0  0
    9.8063   -5.5401   -7.1988 C   0  0  0  0  0  0  0  0  0  0  0  0
   10.9862   -6.2743   -7.8752 C   0  0  0  0  0  0  0  0  0  0  0  0
    9.8765   -4.1270   -7.7064 C   0  0  0  0  0  0  0  0  0  0  0  0
    6.1429   -7.0444   -7.0779 C   0  0  0  0  0  0  0  0  0  0  0  0
    5.8465   -7.2539   -8.2664 O   0  0  0  0  0  0  0  0  0  0  0  0
    5.6963   -8.0139   -6.2506 N   0  0  0  0  0  0  0  0  0  0  0  0
    5.7414   -8.2656   -4.8104 C   0  0  2  0  0  0  0  0  0  0  0  0
    5.2646   -7.0979   -3.9375 C   0  0  0  0  0  0  0  0  0  0  0  0
    5.2786   -7.4766   -2.4541 C   0  0  0  0  0  0  0  0  0  0  0  0
    3.8335   -6.7007   -4.3336 C   0  0  0  0  0  0  0  0  0  0  0  0
    7.1481   -8.8083   -4.4715 C   0  0  0  0  0  0  0  0  0  0  0  0
    8.0922   -8.0166   -4.3784 O   0  0  0  0  0  0  0  0  0  0  0  0
    7.3504  -10.1947   -4.4500 N   0  0  0  0  0  0  0  0  0  0  0  0
    6.2969  -11.1748   -4.1700 C   0  0  0  0  0  0  0  0  0  0  0  0
    8.7593  -10.6736   -4.3686 C   0  0  2  0  0  0  0  0  0  0  0  0
    9.0811  -11.7538   -5.4251 C   0  0  0  0  0  0  0  0  0  0  0  0
    8.9298  -11.2790   -6.8853 C   0  0  0  0  0  0  0  0  0  0  0  0
    9.8644  -10.1193   -7.2337 C   0  0  0  0  0  0  0  0  0  0  0  0
    9.2038  -12.4458   -7.8363 C   0  0  0  0  0  0  0  0  0  0  0  0
    9.1190  -11.2217   -2.9670 C   0  0  0  0  0  0  0  0  0  0  0  0
    8.4932  -12.1505   -2.4453 O   0  0  0  0  0  0  0  0  0  0  0  0
   10.1557  -10.7014   -2.2519 N   0  0  0  0  0  0  0  0  0  0  0  0
   11.0038   -9.5340   -2.5245 C   0  0  1  0  0  0  0  0  0  0  0  0
   11.2863   -8.8574   -1.2048 C   0  0  0  0  0  0  0  0  0  0  0  0
   12.1709   -9.9004   -3.4914 C   0  0  0  0  0  0  0  0  0  0  0  0
   11.9175  -10.5716   -4.5044 O   0  0  0  0  0  0  0  0  0  0  0  0
   13.4560   -9.4551   -3.4425 N   0  0  0  0  0  0  0  0  0  0  0  0
   14.4082   -9.2888   -2.3283 C   0  0  2  0  0  0  0  0  0  0  0  0
   14.3106  -10.4279   -1.3155 C   0  0  0  0  0  0  0  0  0  0  0  0
   14.4655   -7.8646   -1.6981 C   0  0  0  0  0  0  0  0  0  0  0  0
   14.1345   -7.6591   -0.5308 O   0  0  0  0  0  0  0  0  0  0  0  0
   14.8257   -6.8235   -2.5623 N   0  0  0  0  0  0  0  0  0  0  0  0
   16.1514   -6.8412   -3.1673 C   0  0  0  0  0  0  0  0  0  0  0  0
   14.2432   -5.4817   -2.2916 C   0  0  1  0  0  0  0  0  0  0  0  0
   12.7219   -5.5774   -2.3267 C   0  0  0  0  0  0  0  0  0  0  0  0
   12.0959   -6.0425   -3.6382 C   0  0  0  0  0  0  0  0  0  0  0  0
   10.5821   -6.0476   -3.4064 C   0  0  0  0  0  0  0  0  0  0  0  0
   12.5681   -5.1211   -4.7689 C   0  0  0  0  0  0  0  0  0  0  0  0
   14.8611   -4.7121   -1.0859 C   0  0  0  0  0  0  0  0  0  0  0  0
   16.0806   -4.7857   -0.8684 O   0  0  0  0  0  0  0  0  0  0  0  0
   14.1895   -3.8116   -0.3096 N   0  0  0  0  0  0  0  0  0  0  0  0
   12.7677   -3.3931   -0.1583 C   0  0  1  0  0  0  0  0  0  0  0  0
   12.5393   -2.9965    1.3130 C   0  0  0  0  0  0  0  0  0  0  0  0
   12.8983   -4.0486    2.4165 C   0  0  0  0  0  0  0  0  0  0  0  0
   14.3820   -4.3874    2.5626 C   0  0  0  0  0  0  0  0  0  0  0  0
   12.3924   -3.5296    3.7722 C   0  0  0  0  0  0  0  0  0  0  0  0
   12.4907   -2.3894   -1.4077 C   0  0  0  0  0  0  0  0  0  0  0  0
   13.2482   -2.5612   -2.3772 O   0  0  0  0  0  0  0  0  0  0  0  0
   11.4137   -1.5181   -1.5728 N   0  0  0  0  0  0  0  0  0  0  0  0
   10.6077   -1.0221   -0.4686 C   0  0  0  0  0  0  0  0  0  0  0  0
   11.1361   -0.7486   -2.8816 C   0  0  1  0  0  0  0  0  0  0  0  0
   12.1057   -0.8498   -4.1139 C   0  0  0  0  0  0  0  0  0  0  0  0
   11.5872   -0.1172   -5.3720 C   0  0  0  0  0  0  0  0  0  0  0  0
   13.5185   -0.3089   -3.8551 C   0  0  0  0  0  0  0  0  0  0  0  0
    9.6133   -0.8459   -3.3111 C   0  0  0  0  0  0  0  0  0  0  0  0
    8.8224    0.0122   -2.8887 O   0  0  0  0  0  0  0  0  0  0  0  0
    9.1667   -1.8983   -4.0790 N   0  0  0  0  0  0  0  0  0  0  0  0
   10.0040   -2.9889   -4.4969 C   0  0  0  0  0  0  0  0  0  0  0  0
    1.0175    1.7474   -0.4109 H   0  0  0  0  0  0  0  0  0  0  0  0
    1.6889    2.6879   -1.7459 H   0  0  0  0  0  0  0  0  0  0  0  0
    2.6290    2.4482   -0.2485 H   0  0  0  0  0  0  0  0  0  0  0  0
    2.1732   -0.2140   -1.0757 H   0  0  0  0  0  0  0  0  0  0  0  0
    3.8602    1.6224   -2.8591 H   0  0  0  0  0  0  0  0  0  0  0  0
    3.8921   -0.7302   -3.9981 H   0  0  0  0  0  0  0  0  0  0  0  0
    3.7865   -1.4564   -2.4440 H   0  0  0  0  0  0  0  0  0  0  0  0
    6.2041    0.3748   -3.2151 H   0  0  0  0  0  0  0  0  0  0  0  0
    5.3916   -1.3410   -0.8030 H   0  0  0  0  0  0  0  0  0  0  0  0
    5.5970    0.4139   -0.8551 H   0  0  0  0  0  0  0  0  0  0  0  0
    7.0078   -0.6333   -0.9746 H   0  0  0  0  0  0  0  0  0  0  0  0
    7.3017   -1.9896   -2.5751 H   0  0  0  0  0  0  0  0  0  0  0  0
    5.5225   -3.0744   -2.3981 H   0  0  0  0  0  0  0  0  0  0  0  0
    7.6171   -3.0284   -4.6964 H   0  0  0  0  0  0  0  0  0  0  0  0
    8.9011   -1.5280   -7.8898 H   0  0  0  0  0  0  0  0  0  0  0  0
    8.6773    0.8526   -7.6317 H   0  0  0  0  0  0  0  0  0  0  0  0
    6.0646    0.3117   -8.7838 H   0  0  0  0  0  0  0  0  0  0  0  0
    7.1978   -0.7989   -9.5255 H   0  0  0  0  0  0  0  0  0  0  0  0
    8.2565    0.9283  -10.6476 H   0  0  0  0  0  0  0  0  0  0  0  0
    8.3248    1.9619   -9.2348 H   0  0  0  0  0  0  0  0  0  0  0  0
    5.9503    1.7659  -11.1199 H   0  0  0  0  0  0  0  0  0  0  0  0
    7.0773    3.1067  -10.8809 H   0  0  0  0  0  0  0  0  0  0  0  0
    5.9607    2.6752   -9.5883 H   0  0  0  0  0  0  0  0  0  0  0  0
    4.8011    1.4939   -6.5356 H   0  0  0  0  0  0  0  0  0  0  0  0
    5.1368    1.1503   -4.8668 H   0  0  0  0  0  0  0  0  0  0  0  0
    3.7741    0.3192   -5.6981 H   0  0  0  0  0  0  0  0  0  0  0  0
    4.4025   -1.9003   -5.6949 H   0  0  0  0  0  0  0  0  0  0  0  0
    4.4977   -1.8139   -7.4195 H   0  0  0  0  0  0  0  0  0  0  0  0
    7.2808   -3.8532   -8.8929 H   0  0  0  0  0  0  0  0  0  0  0  0
    5.4971   -3.6578   -8.8759 H   0  0  0  0  0  0  0  0  0  0  0  0
    6.2536   -5.2344   -9.1470 H   0  0  0  0  0  0  0  0  0  0  0  0
    7.2049   -5.7650   -5.6095 H   0  0  0  0  0  0  0  0  0  0  0  0
    8.6278   -7.2686   -7.0681 H   0  0  0  0  0  0  0  0  0  0  0  0
    8.2760   -6.3237   -8.4907 H   0  0  0  0  0  0  0  0  0  0  0  0
    9.9922   -5.5333   -6.1321 H   0  0  0  0  0  0  0  0  0  0  0  0
   10.8798   -6.2795   -8.9678 H   0  0  0  0  0  0  0  0  0  0  0  0
   11.0929   -7.3047   -7.5250 H   0  0  0  0  0  0  0  0  0  0  0  0
   11.9371   -5.7647   -7.6636 H   0  0  0  0  0  0  0  0  0  0  0  0
    9.6646   -4.0508   -8.7787 H   0  0  0  0  0  0  0  0  0  0  0  0
   10.8482   -3.6605   -7.5178 H   0  0  0  0  0  0  0  0  0  0  0  0
    9.1466   -3.5787   -7.1558 H   0  0  0  0  0  0  0  0  0  0  0  0
    5.2045   -8.7113   -6.7952 H   0  0  0  0  0  0  0  0  0  0  0  0
    4.9943   -9.0432   -4.6732 H   0  0  0  0  0  0  0  0  0  0  0  0
    5.9271   -6.2395   -4.0542 H   0  0  0  0  0  0  0  0  0  0  0  0
    4.5611   -8.2762   -2.2415 H   0  0  0  0  0  0  0  0  0  0  0  0
    5.0133   -6.6095   -1.8402 H   0  0  0  0  0  0  0  0  0  0  0  0
    6.2688   -7.8145   -2.1339 H   0  0  0  0  0  0  0  0  0  0  0  0
    3.1365   -7.5369   -4.1978 H   0  0  0  0  0  0  0  0  0  0  0  0
    3.7722   -6.4069   -5.3871 H   0  0  0  0  0  0  0  0  0  0  0  0
    3.4787   -5.8637   -3.7286 H   0  0  0  0  0  0  0  0  0  0  0  0
    5.3002  -10.8412   -4.4449 H   0  0  0  0  0  0  0  0  0  0  0  0
    6.2786  -11.3803   -3.0962 H   0  0  0  0  0  0  0  0  0  0  0  0
    6.4773  -12.0975   -4.7236 H   0  0  0  0  0  0  0  0  0  0  0  0
    9.4137   -9.8320   -4.5749 H   0  0  0  0  0  0  0  0  0  0  0  0
   10.1041  -12.1189   -5.2699 H   0  0  0  0  0  0  0  0  0  0  0  0
    8.4480  -12.6352   -5.2677 H   0  0  0  0  0  0  0  0  0  0  0  0
    7.8966  -10.9481   -7.0465 H   0  0  0  0  0  0  0  0  0  0  0  0
   10.9150  -10.4089   -7.1281 H   0  0  0  0  0  0  0  0  0  0  0  0
    9.6891   -9.2497   -6.5971 H   0  0  0  0  0  0  0  0  0  0  0  0
    9.7072   -9.7953   -8.2682 H   0  0  0  0  0  0  0  0  0  0  0  0
   10.2299  -12.8134   -7.7254 H   0  0  0  0  0  0  0  0  0  0  0  0
    9.0657  -12.1385   -8.8783 H   0  0  0  0  0  0  0  0  0  0  0  0
    8.5215  -13.2794   -7.6392 H   0  0  0  0  0  0  0  0  0  0  0  0
   10.2938  -11.1830   -1.3728 H   0  0  0  0  0  0  0  0  0  0  0  0
   10.4004   -8.8329   -3.1033 H   0  0  0  0  0  0  0  0  0  0  0  0
   11.6748   -9.5318   -0.4416 H   0  0  0  0  0  0  0  0  0  0  0  0
   10.3666   -8.4179   -0.7936 H   0  0  0  0  0  0  0  0  0  0  0  0
   11.9816   -8.0472   -1.3411 H   0  0  0  0  0  0  0  0  0  0  0  0
   13.9111   -9.7680   -4.2926 H   0  0  0  0  0  0  0  0  0  0  0  0
   15.3878   -9.4297   -2.7977 H   0  0  0  0  0  0  0  0  0  0  0  0
   13.2810  -10.7038   -1.0864 H   0  0  0  0  0  0  0  0  0  0  0  0
   14.8178  -10.1852   -0.3806 H   0  0  0  0  0  0  0  0  0  0  0  0
   14.7749  -11.3300   -1.7312 H   0  0  0  0  0  0  0  0  0  0  0  0
   16.4089   -7.8319   -3.5444 H   0  0  0  0  0  0  0  0  0  0  0  0
   16.8960   -6.5732   -2.4114 H   0  0  0  0  0  0  0  0  0  0  0  0
   16.1955   -6.1331   -3.9999 H   0  0  0  0  0  0  0  0  0  0  0  0
   14.5494   -4.8611   -3.1436 H   0  0  0  0  0  0  0  0  0  0  0  0
   12.2855   -4.6007   -2.2026 H   0  0  0  0  0  0  0  0  0  0  0  0
   12.3562   -6.1492   -1.4756 H   0  0  0  0  0  0  0  0  0  0  0  0
   12.3951   -7.0612   -3.8862 H   0  0  0  0  0  0  0  0  0  0  0  0
   10.2086   -5.0844   -3.0633 H   0  0  0  0  0  0  0  0  0  0  0  0
   10.3109   -6.7332   -2.6019 H   0  0  0  0  0  0  0  0  0  0  0  0
   10.0315   -6.3561   -4.2922 H   0  0  0  0  0  0  0  0  0  0  0  0
   12.8409   -4.1260   -4.4104 H   0  0  0  0  0  0  0  0  0  0  0  0
   11.8212   -4.9688   -5.5357 H   0  0  0  0  0  0  0  0  0  0  0  0
   13.4598   -5.5382   -5.2503 H   0  0  0  0  0  0  0  0  0  0  0  0
   14.8576   -3.2844    0.2379 H   0  0  0  0  0  0  0  0  0  0  0  0
   12.1366   -4.2710   -0.3048 H   0  0  0  0  0  0  0  0  0  0  0  0
   11.4627   -2.8653    1.4501 H   0  0  0  0  0  0  0  0  0  0  0  0
   13.0283   -2.0431    1.5289 H   0  0  0  0  0  0  0  0  0  0  0  0
   12.3596   -4.9800    2.1995 H   0  0  0  0  0  0  0  0  0  0  0  0
   15.0056   -3.4920    2.5424 H   0  0  0  0  0  0  0  0  0  0  0  0
   14.7143   -5.0759    1.7787 H   0  0  0  0  0  0  0  0  0  0  0  0
   14.5779   -4.9097    3.5091 H   0  0  0  0  0  0  0  0  0  0  0  0
   12.8620   -2.5746    4.0277 H   0  0  0  0  0  0  0  0  0  0  0  0
   12.6175   -4.2412    4.5769 H   0  0  0  0  0  0  0  0  0  0  0  0
   11.3076   -3.3866    3.7584 H   0  0  0  0  0  0  0  0  0  0  0  0
   10.8837   -1.4249    0.4895 H   0  0  0  0  0  0  0  0  0  0  0  0
    9.5517   -1.2417   -0.6441 H   0  0  0  0  0  0  0  0  0  0  0  0
   10.7520    0.0600   -0.3942 H   0  0  0  0  0  0  0  0  0  0  0  0
   11.2409    0.3028   -2.5716 H   0  0  0  0  0  0  0  0  0  0  0  0
   12.2205   -1.9014   -4.3870 H   0  0  0  0  0  0  0  0  0  0  0  0
   11.8785    0.9355   -5.3830 H   0  0  0  0  0  0  0  0  0  0  0  0
   10.5028   -0.1357   -5.4755 H   0  0  0  0  0  0  0  0  0  0  0  0
   11.9984   -0.5925   -6.2702 H   0  0  0  0  0  0  0  0  0  0  0  0
   13.6130    0.7465   -4.0780 H   0  0  0  0  0  0  0  0  0  0  0  0
   14.2267   -0.8516   -4.5062 H   0  0  0  0  0  0  0  0  0  0  0  0
   13.8593   -0.4426   -2.8256 H   0  0  0  0  0  0  0  0  0  0  0  0
   10.7193   -3.2033   -3.7194 H   0  0  0  0  0  0  0  0  0  0  0  0
   10.5041   -2.7197   -5.4270 H   0  0  0  0  0  0  0  0  0  0  0  0
    9.4010   -3.8851   -4.6791 H   0  0  0  0  0  0  0  0  0  0  0  0
  1  2  1  0  0  0  0
  1 86  1  0  0  0  0
  1 87  1  0  0  0  0
  1 88  1  0  0  0  0
  2  3  2  0  0  0  0
  2 89  1  0  0  0  0
  3  4  1  0  0  0  0
  3 90  1  0  0  0  0
  4  5  1  0  0  0  0
  4 91  1  0  0  0  0
  4 92  1  0  0  0  0
  5  6  1  0  0  0  0
  5  7  1  0  0  0  0
  5 93  1  6  0  0  0
  6 94  1  0  0  0  0
  6 95  1  0  0  0  0
  6 96  1  0  0  0  0
  7  8  1  0  0  0  0
  7  9  1  0  0  0  0
  7 97  1  1  0  0  0
  8 98  1  0  0  0  0
  9 10  1  0  0  0  0
  9 84  1  0  0  0  0
  9 99  1  6  0  0  0
 10 11  2  0  0  0  0
 10 12  1  0  0  0  0
 12 13  1  0  0  0  0
 12100  1  0  0  0  0
 13 14  1  0  0  0  0
 13 17  1  0  0  0  0
 13101  1  6  0  0  0
 14 15  1  0  0  0  0
 14102  1  0  0  0  0
 14103  1  0  0  0  0
 15 16  1  0  0  0  0
 15104  1  0  0  0  0
 15105  1  0  0  0  0
 16106  1  0  0  0  0
 16107  1  0  0  0  0
 16108  1  0  0  0  0
 17 18  2  0  0  0  0
 17 19  1  0  0  0  0
 19 20  1  0  0  0  0
 19 21  1  0  0  0  0
 20109  1  0  0  0  0
 20110  1  0  0  0  0
 20111  1  0  0  0  0
 21 22  1  0  0  0  0
 21112  1  0  0  0  0
 21113  1  0  0  0  0
 22 23  2  0  0  0  0
 22 24  1  0  0  0  0
 24 25  1  0  0  0  0
 24 26  1  0  0  0  0
 25114  1  0  0  0  0
 25115  1  0  0  0  0
 25116  1  0  0  0  0
 26 31  1  0  0  0  0
 26 27  1  0  0  0  0
 26117  1  1  0  0  0
 27 28  1  0  0  0  0
 27118  1  0  0  0  0
 27119  1  0  0  0  0
 28 29  1  0  0  0  0
 28 30  1  0  0  0  0
 28120  1  0  0  0  0
 29121  1  0  0  0  0
 29122  1  0  0  0  0
 29123  1  0  0  0  0
 30124  1  0  0  0  0
 30125  1  0  0  0  0
 30126  1  0  0  0  0
 31 32  2  0  0  0  0
 31 33  1  0  0  0  0
 33 34  1  0  0  0  0
 33127  1  0  0  0  0
 34 38  1  0  0  0  0
 34 35  1  0  0  0  0
 34128  1  1  0  0  0
 35 36  1  0  0  0  0
 35 37  1  0  0  0  0
 35129  1  0  0  0  0
 36130  1  0  0  0  0
 36131  1  0  0  0  0
 36132  1  0  0  0  0
 37133  1  0  0  0  0
 37134  1  0  0  0  0
 37135  1  0  0  0  0
 38 39  2  0  0  0  0
 38 40  1  0  0  0  0
 40 41  1  0  0  0  0
 40 42  1  0  0  0  0
 41136  1  0  0  0  0
 41137  1  0  0  0  0
 41138  1  0  0  0  0
 42 47  1  0  0  0  0
 42 43  1  0  0  0  0
 42139  1  6  0  0  0
 43 44  1  0  0  0  0
 43140  1  0  0  0  0
 43141  1  0  0  0  0
 44 45  1  0  0  0  0
 44 46  1  0  0  0  0
 44142  1  0  0  0  0
 45143  1  0  0  0  0
 45144  1  0  0  0  0
 45145  1  0  0  0  0
 46146  1  0  0  0  0
 46147  1  0  0  0  0
 46148  1  0  0  0  0
 47 48  2  0  0  0  0
 47 49  1  0  0  0  0
 49 50  1  0  0  0  0
 49149  1  0  0  0  0
 50 51  1  0  0  0  0
 50 52  1  0  0  0  0
 50150  1  6  0  0  0
 51151  1  0  0  0  0
 51152  1  0  0  0  0
 51153  1  0  0  0  0
 52 53  2  0  0  0  0
 52 54  1  0  0  0  0
 54 55  1  0  0  0  0
 54154  1  0  0  0  0
 55 57  1  0  0  0  0
 55 56  1  0  0  0  0
 55155  1  6  0  0  0
 56156  1  0  0  0  0
 56157  1  0  0  0  0
 56158  1  0  0  0  0
 57 58  2  0  0  0  0
 57 59  1  0  0  0  0
 59 60  1  0  0  0  0
 59 61  1  0  0  0  0
 60159  1  0  0  0  0
 60160  1  0  0  0  0
 60161  1  0  0  0  0
 61 62  1  0  0  0  0
 61 66  1  0  0  0  0
 61162  1  6  0  0  0
 62 63  1  0  0  0  0
 62163  1  0  0  0  0
 62164  1  0  0  0  0
 63 64  1  0  0  0  0
 63 65  1  0  0  0  0
 63165  1  0  0  0  0
 64166  1  0  0  0  0
 64167  1  0  0  0  0
 64168  1  0  0  0  0
 65169  1  0  0  0  0
 65170  1  0  0  0  0
 65171  1  0  0  0  0
 66 67  2  0  0  0  0
 66 68  1  0  0  0  0
 68 69  1  0  0  0  0
 68172  1  0  0  0  0
 69 70  1  0  0  0  0
 69 74  1  0  0  0  0
 69173  1  6  0  0  0
 70 71  1  0  0  0  0
 70174  1  0  0  0  0
 70175  1  0  0  0  0
 71 72  1  0  0  0  0
 71 73  1  0  0  0  0
 71176  1  0  0  0  0
 72177  1  0  0  0  0
 72178  1  0  0  0  0
 72179  1  0  0  0  0
 73180  1  0  0  0  0
 73181  1  0  0  0  0
 73182  1  0  0  0  0
 74 75  2  0  0  0  0
 74 76  1  0  0  0  0
 76 77  1  0  0  0  0
 76 78  1  0  0  0  0
 77183  1  0  0  0  0
 77184  1  0  0  0  0
 77185  1  0  0  0  0
 78 79  1  0  0  0  0
 78 82  1  0  0  0  0
 78186  1  1  0  0  0
 79 80  1  0  0  0  0
 79 81  1  0  0  0  0
 79187  1  0  0  0  0
 80188  1  0  0  0  0
 80189  1  0  0  0  0
 80190  1  0  0  0  0
 81191  1  0  0  0  0
 81192  1  0  0  0  0
 81193  1  0  0  0  0
 82 83  2  0  0  0  0
 82 84  1  0  0  0  0
 84 85  1  0  0  0  0
 85194  1  0  0  0  0
 85195  1  0  0  0  0
 85196  1  0  0  0  0
M  END
>  <Energy>
658.75

$$$$