46
 OpenBabel03292021463D

100102  0  0  1  0  0  0  0  0999 V2000
    3.6255   -2.1291   -2.3691 C   0  0  0  0  0  0  0  0  0  0  0  0
    2.7720   -1.6323   -1.2002 C   0  0  0  0  0  0  0  0  0  0  0  0
    2.7527   -0.1079   -1.1229 C   0  0  0  0  0  0  0  0  0  0  0  0
    1.3388   -2.1758   -1.4138 C   0  0  0  0  0  0  0  0  0  0  0  0
    3.3039   -2.2027    0.0244 O   0  0  0  0  0  0  0  0  0  0  0  0
    4.5906   -1.8872    0.4092 C   0  0  0  0  0  0  0  0  0  0  0  0
    5.3800   -1.1439   -0.1747 O   0  0  0  0  0  0  0  0  0  0  0  0
    4.9182   -2.6040    1.7207 C   0  0  2  0  0  0  0  0  0  0  0  0
    4.4600   -1.7726    2.9142 C   0  0  0  0  0  0  0  0  0  0  0  0
    2.9586   -1.4915    2.9481 C   0  0  0  0  0  0  0  0  0  0  0  0
    2.5388   -0.6824    4.1809 C   0  0  0  0  0  0  0  0  0  0  0  0
    3.2447    0.6756    4.2261 C   0  0  0  0  0  0  0  0  0  0  0  0
    2.8542    1.4930    5.3445 N   0  0  0  0  0  0  0  0  0  0  0  0
    1.8168    2.3710    5.2528 C   0  0  0  0  0  0  0  0  0  0  0  0
    1.1024    2.4931    4.2710 O   0  0  0  0  0  0  0  0  0  0  0  0
    1.7270    3.0821    6.3984 O   0  0  0  0  0  0  0  0  0  0  0  0
    0.6505    4.0253    6.4321 C   0  0  0  0  0  0  0  0  0  0  0  0
   -0.2974    3.6530    7.5418 C   0  0  0  0  0  0  0  0  0  0  0  0
   -0.1191    4.1547    8.8380 C   0  0  0  0  0  0  0  0  0  0  0  0
   -0.9952    3.7913    9.8621 C   0  0  0  0  0  0  0  0  0  0  0  0
   -2.0547    2.9240    9.6003 C   0  0  0  0  0  0  0  0  0  0  0  0
   -2.2374    2.4148    8.3160 C   0  0  0  0  0  0  0  0  0  0  0  0
   -1.3595    2.7721    7.2922 C   0  0  0  0  0  0  0  0  0  0  0  0
    6.3682   -2.7693    1.7754 N   0  0  0  0  0  0  0  0  0  0  0  0
    6.9695   -3.5206    2.7543 C   0  0  0  0  0  0  0  0  0  0  0  0
    6.3495   -4.0457    3.6796 O   0  0  0  0  0  0  0  0  0  0  0  0
    8.4823   -3.6167    2.6605 C   0  0  2  0  0  0  0  0  0  0  0  0
    9.1234   -2.2152    2.6893 C   0  0  0  0  0  0  0  0  0  0  0  0
   10.5498   -2.4572    2.2009 C   0  0  1  0  0  0  0  0  0  0  0  0
   11.4074   -2.7155    3.3265 O   0  0  0  0  0  0  0  0  0  0  0  0
   11.7760   -1.5821    4.0019 C   0  0  0  0  0  0  0  0  0  0  0  0
   11.4459   -0.4506    3.6591 O   0  0  0  0  0  0  0  0  0  0  0  0
   12.6868   -1.8585    5.1946 C   0  0  0  0  0  0  0  0  0  0  0  0
   12.5108   -0.7812    6.2828 C   0  0  0  0  0  0  0  0  0  0  0  0
   11.1837   -0.9115    7.0317 C   0  0  0  0  0  0  0  0  0  0  0  0
   10.9935   -2.3110    7.6065 C   0  0  0  0  0  0  0  0  0  0  0  0
   11.1763   -3.3922    6.5465 C   0  0  0  0  0  0  0  0  0  0  0  0
   12.5078   -3.2503    5.8102 C   0  0  0  0  0  0  0  0  0  0  0  0
   10.4012   -3.6663    1.2582 C   0  0  0  0  0  0  0  0  0  0  0  0
    9.0297   -4.1354    1.4223 N   0  0  0  0  0  0  0  0  0  0  0  0
    8.5697   -5.1359    0.5789 C   0  0  0  0  0  0  0  0  0  0  0  0
    9.2891   -5.5632   -0.2886 O   0  0  0  0  0  0  0  0  0  0  0  0
    7.2555   -5.5216    0.7443 O   0  0  0  0  0  0  0  0  0  0  0  0
    6.6722   -6.4849   -0.2085 C   0  0  0  0  0  0  0  0  0  0  0  0
    7.3987   -7.8336   -0.1373 C   0  0  0  0  0  0  0  0  0  0  0  0
    5.1782   -6.6773    0.1681 C   0  0  0  0  0  0  0  0  0  0  0  0
    6.7353   -6.0127   -1.6753 C   0  0  0  0  0  0  0  0  0  0  0  0
    3.2566   -1.7422   -3.3218 H   0  0  0  0  0  0  0  0  0  0  0  0
    3.6347   -3.2264   -2.3997 H   0  0  0  0  0  0  0  0  0  0  0  0
    4.6657   -1.8169   -2.2657 H   0  0  0  0  0  0  0  0  0  0  0  0
    2.3574    0.3393   -2.0378 H   0  0  0  0  0  0  0  0  0  0  0  0
    3.7578    0.2957   -0.9848 H   0  0  0  0  0  0  0  0  0  0  0  0
    2.1678    0.2482   -0.2672 H   0  0  0  0  0  0  0  0  0  0  0  0
    0.9191   -1.8214   -2.3652 H   0  0  0  0  0  0  0  0  0  0  0  0
    0.6464   -1.8826   -0.6155 H   0  0  0  0  0  0  0  0  0  0  0  0
    1.3265   -3.2746   -1.4410 H   0  0  0  0  0  0  0  0  0  0  0  0
    4.4864   -3.6084    1.7029 H   0  0  0  0  0  0  0  0  0  0  0  0
    4.7289   -2.2825    3.8443 H   0  0  0  0  0  0  0  0  0  0  0  0
    5.0279   -0.8353    2.9055 H   0  0  0  0  0  0  0  0  0  0  0  0
    2.4125   -2.4420    2.9243 H   0  0  0  0  0  0  0  0  0  0  0  0
    2.6627   -0.9268    2.0580 H   0  0  0  0  0  0  0  0  0  0  0  0
    2.7535   -1.2488    5.0948 H   0  0  0  0  0  0  0  0  0  0  0  0
    1.4500   -0.5453    4.1513 H   0  0  0  0  0  0  0  0  0  0  0  0
    3.0478    1.2248    3.2978 H   0  0  0  0  0  0  0  0  0  0  0  0
    4.3254    0.5448    4.3206 H   0  0  0  0  0  0  0  0  0  0  0  0
    3.4710    1.6131    6.1356 H   0  0  0  0  0  0  0  0  0  0  0  0
    0.1002    4.0998    5.4871 H   0  0  0  0  0  0  0  0  0  0  0  0
    1.0769    5.0179    6.6158 H   0  0  0  0  0  0  0  0  0  0  0  0
    0.7041    4.8308    9.0570 H   0  0  0  0  0  0  0  0  0  0  0  0
   -0.8494    4.1825   10.8655 H   0  0  0  0  0  0  0  0  0  0  0  0
   -2.7357    2.6411   10.3986 H   0  0  0  0  0  0  0  0  0  0  0  0
   -3.0612    1.7363    8.1109 H   0  0  0  0  0  0  0  0  0  0  0  0
   -1.5065    2.3611    6.2948 H   0  0  0  0  0  0  0  0  0  0  0  0
    6.9232   -2.0873    1.2679 H   0  0  0  0  0  0  0  0  0  0  0  0
    8.8638   -4.2255    3.4898 H   0  0  0  0  0  0  0  0  0  0  0  0
    9.0429   -1.7536    3.6758 H   0  0  0  0  0  0  0  0  0  0  0  0
    8.6539   -1.5366    1.9675 H   0  0  0  0  0  0  0  0  0  0  0  0
   10.9543   -1.6142    1.6263 H   0  0  0  0  0  0  0  0  0  0  0  0
   13.7089   -1.7816    4.8015 H   0  0  0  0  0  0  0  0  0  0  0  0
   12.5866    0.2256    5.8547 H   0  0  0  0  0  0  0  0  0  0  0  0
   13.3318   -0.8698    7.0067 H   0  0  0  0  0  0  0  0  0  0  0  0
   10.3514   -0.6776    6.3571 H   0  0  0  0  0  0  0  0  0  0  0  0
   11.1461   -0.1751    7.8435 H   0  0  0  0  0  0  0  0  0  0  0  0
    9.9941   -2.3947    8.0482 H   0  0  0  0  0  0  0  0  0  0  0  0
   11.7138   -2.4710    8.4182 H   0  0  0  0  0  0  0  0  0  0  0  0
   10.3488   -3.3426    5.8290 H   0  0  0  0  0  0  0  0  0  0  0  0
   11.1265   -4.3795    7.0191 H   0  0  0  0  0  0  0  0  0  0  0  0
   12.5920   -4.0308    5.0460 H   0  0  0  0  0  0  0  0  0  0  0  0
   13.3257   -3.4282    6.5213 H   0  0  0  0  0  0  0  0  0  0  0  0
   11.0992   -4.4747    1.4984 H   0  0  0  0  0  0  0  0  0  0  0  0
   10.5329   -3.3740    0.2124 H   0  0  0  0  0  0  0  0  0  0  0  0
    7.3664   -8.2725    0.8628 H   0  0  0  0  0  0  0  0  0  0  0  0
    8.4524   -7.7163   -0.3998 H   0  0  0  0  0  0  0  0  0  0  0  0
    6.9771   -8.5472   -0.8537 H   0  0  0  0  0  0  0  0  0  0  0  0
    5.0521   -7.2829    1.0740 H   0  0  0  0  0  0  0  0  0  0  0  0
    4.6170   -7.1783   -0.6323 H   0  0  0  0  0  0  0  0  0  0  0  0
    4.6832   -5.7189    0.3670 H   0  0  0  0  0  0  0  0  0  0  0  0
    7.7240   -5.6443   -1.9485 H   0  0  0  0  0  0  0  0  0  0  0  0
    6.0222   -5.2136   -1.8971 H   0  0  0  0  0  0  0  0  0  0  0  0
    6.5181   -6.8481   -2.3545 H   0  0  0  0  0  0  0  0  0  0  0  0
  1  2  1  0  0  0  0
  1 48  1  0  0  0  0
  1 49  1  0  0  0  0
  1 50  1  0  0  0  0
  2  3  1  0  0  0  0
  2  4  1  0  0  0  0
  2  5  1  0  0  0  0
  3 51  1  0  0  0  0
  3 52  1  0  0  0  0
  3 53  1  0  0  0  0
  4 54  1  0  0  0  0
  4 55  1  0  0  0  0
  4 56  1  0  0  0  0
  5  6  1  0  0  0  0
  6  7  2  0  0  0  0
  8 24  1  0  0  0  0
  8  9  1  0  0  0  0
  8  6  1  0  0  0  0
  8 57  1  1  0  0  0
  9 10  1  0  0  0  0
  9 58  1  0  0  0  0
  9 59  1  0  0  0  0
 10 11  1  0  0  0  0
 10 60  1  0  0  0  0
 10 61  1  0  0  0  0
 11 12  1  0  0  0  0
 11 62  1  0  0  0  0
 11 63  1  0  0  0  0
 12 13  1  0  0  0  0
 12 64  1  0  0  0  0
 12 65  1  0  0  0  0
 13 14  1  0  0  0  0
 13 66  1  0  0  0  0
 14 15  2  0  0  0  0
 14 16  1  0  0  0  0
 16 17  1  0  0  0  0
 17 18  1  0  0  0  0
 17 67  1  0  0  0  0
 17 68  1  0  0  0  0
 18 19  1  0  0  0  0
 18 23  2  0  0  0  0
 19 20  2  0  0  0  0
 19 69  1  0  0  0  0
 20 21  1  0  0  0  0
 20 70  1  0  0  0  0
 21 22  2  0  0  0  0
 21 71  1  0  0  0  0
 22 23  1  0  0  0  0
 22 72  1  0  0  0  0
 23 73  1  0  0  0  0
 24 25  1  0  0  0  0
 24 74  1  0  0  0  0
 25 26  2  0  0  0  0
 25 27  1  0  0  0  0
 27 28  1  0  0  0  0
 27 40  1  0  0  0  0
 27 75  1  1  0  0  0
 28 29  1  0  0  0  0
 28 76  1  0  0  0  0
 28 77  1  0  0  0  0
 29 30  1  0  0  0  0
 29 39  1  0  0  0  0
 29 78  1  6  0  0  0
 30 31  1  0  0  0  0
 31 32  2  0  0  0  0
 31 33  1  0  0  0  0
 33 34  1  0  0  0  0
 33 38  1  0  0  0  0
 33 79  1  0  0  0  0
 34 35  1  0  0  0  0
 34 80  1  0  0  0  0
 34 81  1  0  0  0  0
 35 36  1  0  0  0  0
 35 82  1  0  0  0  0
 35 83  1  0  0  0  0
 36 37  1  0  0  0  0
 36 84  1  0  0  0  0
 36 85  1  0  0  0  0
 37 38  1  0  0  0  0
 37 86  1  0  0  0  0
 37 87  1  0  0  0  0
 38 88  1  0  0  0  0
 38 89  1  0  0  0  0
 39 40  1  0  0  0  0
 39 90  1  0  0  0  0
 39 91  1  0  0  0  0
 40 41  1  0  0  0  0
 41 42  2  0  0  0  0
 41 43  1  0  0  0  0
 43 44  1  0  0  0  0
 44 45  1  0  0  0  0
 44 46  1  0  0  0  0
 44 47  1  0  0  0  0
 45 92  1  0  0  0  0
 45 93  1  0  0  0  0
 45 94  1  0  0  0  0
 46 95  1  0  0  0  0
 46 96  1  0  0  0  0
 46 97  1  0  0  0  0
 47 98  1  0  0  0  0
 47 99  1  0  0  0  0
 47100  1  0  0  0  0
M  END
>  <Energy>
-17.4274

$$$$