7
 OpenBabel03302012423D

 66 70  0  0  0  0  0  0  0  0999 V2000
    1.3429    0.5400   -0.3368 C   0  0  0  0  0  0  0  0  0  0  0  0
    2.5974    0.0268    0.1956 N   0  0  0  0  0  0  0  0  0  0  0  0
    3.2725    0.7926    1.2376 C   0  0  0  0  0  0  0  0  0  0  0  0
    3.3344   -1.0028   -0.4944 C   0  0  0  0  0  0  0  0  0  0  0  0
    4.5921   -1.4000   -0.0143 C   0  0  0  0  0  0  0  0  0  0  0  0
    5.4423   -2.1268   -0.8083 C   0  0  0  0  0  0  0  0  0  0  0  0
    5.0824   -2.4027   -2.1072 C   0  0  0  0  0  0  0  0  0  0  0  0
    3.7970   -2.1015   -2.6512 C   0  0  0  0  0  0  0  0  0  0  0  0
    3.5816   -2.2855   -4.1835 C   0  0  0  0  0  0  0  0  0  0  0  0
    2.7867   -1.3711   -4.9630 C   0  0  0  0  0  0  0  0  0  0  0  0
    2.0248   -0.3440   -4.4104 C   0  0  0  0  0  0  0  0  0  0  0  0
    0.9671    0.2341   -5.0641 C   0  0  0  0  0  0  0  0  0  0  0  0
    0.5911   -0.0741   -6.3700 C   0  0  0  0  0  0  0  0  0  0  0  0
   -0.5321    0.4145   -6.8968 N   0  3  0  0  0  0  0  0  0  0  0  0
   -1.5289    1.2093   -6.1362 C   0  0  0  0  0  0  0  0  0  0  0  0
   -0.9878    0.1991   -8.2679 C   0  0  0  0  0  0  0  0  0  0  0  0
    1.5549   -0.8916   -7.0941 C   0  0  0  0  0  0  0  0  0  0  0  0
    2.6842   -1.4760   -6.4293 C   0  0  0  0  0  0  0  0  0  0  0  0
    4.1701   -2.0916   -7.3610 Se  0  0  0  0  0  0  0  0  0  0  0  0
    4.9938   -3.1424   -6.0671 C   0  0  0  0  0  0  0  0  0  0  0  0
    6.3149   -3.7364   -6.2384 C   0  0  0  0  0  0  0  0  0  0  0  0
    6.8242   -4.6337   -5.2476 C   0  0  0  0  0  0  0  0  0  0  0  0
    5.9719   -5.0562   -4.2282 C   0  0  0  0  0  0  0  0  0  0  0  0
    4.8226   -4.3561   -3.9906 C   0  0  0  0  0  0  0  0  0  0  0  0
    4.4255   -3.2722   -4.7849 C   0  0  0  0  0  0  0  0  0  0  0  0
    6.3494   -6.1838   -3.3111 C   0  0  0  0  0  0  0  0  0  0  0  0
    7.7810   -6.0077   -2.8840 C   0  0  0  0  0  0  0  0  0  0  0  0
    8.7059   -5.9264   -4.1160 C   0  0  0  0  0  0  0  0  0  0  0  0
    8.1734   -5.1368   -5.2438 N   0  0  0  0  0  0  0  0  0  0  0  0
    9.0891   -4.9129   -6.3465 C   0  0  0  0  0  0  0  0  0  0  0  0
    8.6945   -3.7708   -7.2975 C   0  0  0  0  0  0  0  0  0  0  0  0
    7.1982   -3.3753   -7.4193 C   0  0  0  0  0  0  0  0  0  0  0  0
    2.8966   -1.4836   -1.7594 C   0  0  0  0  0  0  0  0  0  0  0  0
   -1.1934   -0.3219    2.2150 Br  0  5  0  0  0  0  0  0  0  0  0  0
    0.9738    1.4156    0.2350 H   0  0  0  0  0  0  0  0  0  0  0  0
    0.5679   -0.2501   -0.3215 H   0  0  0  0  0  0  0  0  0  0  0  0
    1.4951    0.8985   -1.3783 H   0  0  0  0  0  0  0  0  0  0  0  0
    2.6893    1.6742    1.5663 H   0  0  0  0  0  0  0  0  0  0  0  0
    4.2307    1.1925    0.8247 H   0  0  0  0  0  0  0  0  0  0  0  0
    3.4897    0.1540    2.1150 H   0  0  0  0  0  0  0  0  0  0  0  0
    4.9663   -1.1032    0.9524 H   0  0  0  0  0  0  0  0  0  0  0  0
    6.4246   -2.4060   -0.4400 H   0  0  0  0  0  0  0  0  0  0  0  0
    5.9116   -2.8075   -2.6651 H   0  0  0  0  0  0  0  0  0  0  0  0
    2.1391    0.0278   -3.4365 H   0  0  0  0  0  0  0  0  0  0  0  0
    0.4351    0.9163   -4.4334 H   0  0  0  0  0  0  0  0  0  0  0  0
   -1.3892    1.3264   -5.0526 H   0  0  0  0  0  0  0  0  0  0  0  0
   -2.5360    0.7258   -6.1913 H   0  0  0  0  0  0  0  0  0  0  0  0
   -1.6174    2.2290   -6.5591 H   0  0  0  0  0  0  0  0  0  0  0  0
   -0.3429   -0.4343   -8.8881 H   0  0  0  0  0  0  0  0  0  0  0  0
   -1.1061    1.1799   -8.7723 H   0  0  0  0  0  0  0  0  0  0  0  0
   -1.9948   -0.2911   -8.2547 H   0  0  0  0  0  0  0  0  0  0  0  0
    1.4738   -1.0621   -8.1545 H   0  0  0  0  0  0  0  0  0  0  0  0
    4.2617   -4.5978   -3.0935 H   0  0  0  0  0  0  0  0  0  0  0  0
    5.6812   -6.2336   -2.4200 H   0  0  0  0  0  0  0  0  0  0  0  0
    6.2443   -7.1373   -3.8690 H   0  0  0  0  0  0  0  0  0  0  0  0
    8.0963   -6.8573   -2.2351 H   0  0  0  0  0  0  0  0  0  0  0  0
    7.8434   -5.0746   -2.2837 H   0  0  0  0  0  0  0  0  0  0  0  0
    8.9335   -6.9452   -4.4871 H   0  0  0  0  0  0  0  0  0  0  0  0
    9.6549   -5.4784   -3.7377 H   0  0  0  0  0  0  0  0  0  0  0  0
    9.2383   -5.8755   -6.8688 H   0  0  0  0  0  0  0  0  0  0  0  0
   10.0924   -4.6250   -5.9369 H   0  0  0  0  0  0  0  0  0  0  0  0
    9.1532   -3.9449   -8.2980 H   0  0  0  0  0  0  0  0  0  0  0  0
    9.2282   -2.8722   -6.9135 H   0  0  0  0  0  0  0  0  0  0  0  0
    6.7544   -3.7596   -8.3553 H   0  0  0  0  0  0  0  0  0  0  0  0
    7.2189   -2.2615   -7.5026 H   0  0  0  0  0  0  0  0  0  0  0  0
    1.8942   -1.2661   -2.0457 H   0  0  0  0  0  0  0  0  0  0  0  0
  1  2  1  0  0  0  0
  1 35  1  0  0  0  0
  1 36  1  0  0  0  0
  1 37  1  0  0  0  0
  2  3  1  0  0  0  0
  2  4  1  0  0  0  0
  3 38  1  0  0  0  0
  3 39  1  0  0  0  0
  3 40  1  0  0  0  0
  4  5  1  0  0  0  0
  4 33  2  0  0  0  0
  5  6  2  0  0  0  0
  5 41  1  0  0  0  0
  6  7  1  0  0  0  0
  6 42  1  0  0  0  0
  7  8  2  0  0  0  0
  7 43  1  0  0  0  0
  8  9  1  0  0  0  0
  8 33  1  0  0  0  0
  9 10  2  0  0  0  0
  9 25  1  0  0  0  0
 10 11  1  0  0  0  0
 10 18  1  0  0  0  0
 11 12  2  0  0  0  0
 11 44  1  0  0  0  0
 12 13  1  0  0  0  0
 12 45  1  0  0  0  0
 13 14  2  0  0  0  0
 13 17  1  0  0  0  0
 14 15  1  0  0  0  0
 14 16  1  0  0  0  0
 15 46  1  0  0  0  0
 15 47  1  0  0  0  0
 15 48  1  0  0  0  0
 16 49  1  0  0  0  0
 16 50  1  0  0  0  0
 16 51  1  0  0  0  0
 17 18  2  0  0  0  0
 17 52  1  0  0  0  0
 18 19  1  0  0  0  0
 19 20  1  0  0  0  0
 20 21  1  0  0  0  0
 20 25  2  0  0  0  0
 21 22  2  0  0  0  0
 21 32  1  0  0  0  0
 22 23  1  0  0  0  0
 22 29  1  0  0  0  0
 23 24  2  0  0  0  0
 23 26  1  0  0  0  0
 24 25  1  0  0  0  0
 24 53  1  0  0  0  0
 26 27  1  0  0  0  0
 26 54  1  0  0  0  0
 26 55  1  0  0  0  0
 27 28  1  0  0  0  0
 27 56  1  0  0  0  0
 27 57  1  0  0  0  0
 28 29  1  0  0  0  0
 28 58  1  0  0  0  0
 28 59  1  0  0  0  0
 29 30  1  0  0  0  0
 30 31  1  0  0  0  0
 30 60  1  0  0  0  0
 30 61  1  0  0  0  0
 31 32  1  0  0  0  0
 31 62  1  0  0  0  0
 31 63  1  0  0  0  0
 32 64  1  0  0  0  0
 32 65  1  0  0  0  0
 33 66  1  0  0  0  0
M  CHG  2  14   1  34  -1
M  END
$$$$