48
 OpenBabel03292021463D

193193  0  0  1  0  0  0  0  0999 V2000
    1.9785    2.5073   -0.3330 C   0  0  0  0  0  0  0  0  0  0  0  0
    2.4564    1.4662   -1.3005 C   0  0  0  0  0  0  0  0  0  0  0  0
    3.3976    1.6989   -2.2416 C   0  0  0  0  0  0  0  0  0  0  0  0
    4.0003    0.6525   -3.1751 C   0  0  0  0  0  0  0  0  0  0  0  0
    5.5727    0.4971   -3.0126 C   0  0  1  0  0  0  0  0  0  0  0  0
    5.7027   -0.0195   -1.5411 C   0  0  0  0  0  0  0  0  0  0  0  0
    6.4464   -0.4738   -4.0051 C   0  0  1  0  0  0  0  0  0  0  0  0
    5.9005   -1.8051   -3.9483 O   0  0  0  0  0  0  0  0  0  0  0  0
    7.5542   -0.2142   -5.4411 C   0  0  1  0  0  0  0  0  0  0  0  0
    7.3126    0.1498   -7.2929 C   0  0  0  0  0  0  0  0  0  0  0  0
    6.2837    0.0911   -8.0153 O   0  0  0  0  0  0  0  0  0  0  0  0
    7.9116    1.0109   -8.2186 N   0  0  0  0  0  0  0  0  0  0  0  0
    7.6711    2.3702   -7.9302 C   0  0  1  0  0  0  0  0  0  0  0  0
    6.8829    3.4174   -8.7583 C   0  0  0  0  0  0  0  0  0  0  0  0
    6.0534    3.1671  -10.0083 C   0  0  0  0  0  0  0  0  0  0  0  0
    7.1389    2.3366   -6.5063 C   0  0  0  0  0  0  0  0  0  0  0  0
    7.8449    2.9164   -5.6736 O   0  0  0  0  0  0  0  0  0  0  0  0
    5.8427    1.6553   -6.1422 N   0  0  0  0  0  0  0  0  0  0  0  0
    5.3538    2.6351   -5.2084 C   0  0  0  0  0  0  0  0  0  0  0  0
    5.0010    0.0572   -6.4978 C   0  0  0  0  0  0  0  0  0  0  0  0
    5.6038   -1.7049   -6.9659 C   0  0  0  0  0  0  0  0  0  0  0  0
    5.1421   -2.6309   -6.1647 O   0  0  0  0  0  0  0  0  0  0  0  0
    6.5684   -2.2280   -8.1008 N   0  0  0  0  0  0  0  0  0  0  0  0
    6.6737   -1.6288   -9.4766 C   0  0  0  0  0  0  0  0  0  0  0  0
    7.2874   -3.5638   -8.1298 C   0  0  2  0  0  0  0  0  0  0  0  0
    8.7212   -3.6818   -8.9302 C   0  0  0  0  0  0  0  0  0  0  0  0
   10.0195   -2.9096   -8.6013 C   0  0  0  0  0  0  0  0  0  0  0  0
   11.2038   -3.2875   -9.5195 C   0  0  0  0  0  0  0  0  0  0  0  0
    9.9871   -1.3977   -8.6211 C   0  0  0  0  0  0  0  0  0  0  0  0
    6.3729   -4.4830   -9.0225 C   0  0  0  0  0  0  0  0  0  0  0  0
    6.1525   -4.2319  -10.2195 O   0  0  0  0  0  0  0  0  0  0  0  0
    5.7576   -5.6023   -8.6229 N   0  0  0  0  0  0  0  0  0  0  0  0
    5.7404   -6.3041   -7.3547 C   0  0  2  0  0  0  0  0  0  0  0  0
    5.2856   -5.4494   -6.1817 C   0  0  0  0  0  0  0  0  0  0  0  0
    5.2668   -6.2362   -4.8778 C   0  0  0  0  0  0  0  0  0  0  0  0
    3.8982   -4.8555   -6.4736 C   0  0  0  0  0  0  0  0  0  0  0  0
    7.1366   -6.9171   -7.1645 C   0  0  0  0  0  0  0  0  0  0  0  0
    8.0970   -6.1933   -6.8798 O   0  0  0  0  0  0  0  0  0  0  0  0
    7.3124   -8.2548   -7.4882 N   0  0  0  0  0  0  0  0  0  0  0  0
    6.2595   -9.2560   -7.3408 C   0  0  0  0  0  0  0  0  0  0  0  0
    8.7129   -8.7319   -7.6086 C   0  0  2  0  0  0  0  0  0  0  0  0
    8.9624   -9.4228   -8.9629 C   0  0  0  0  0  0  0  0  0  0  0  0
    8.6848   -8.5166  -10.1833 C   0  0  0  0  0  0  0  0  0  0  0  0
    9.6112   -7.3013  -10.2540 C   0  0  0  0  0  0  0  0  0  0  0  0
    8.8252   -9.3289  -11.4701 C   0  0  0  0  0  0  0  0  0  0  0  0
    9.1113   -9.6603   -6.4427 C   0  0  0  0  0  0  0  0  0  0  0  0
    8.5075  -10.7119   -6.2054 O   0  0  0  0  0  0  0  0  0  0  0  0
   10.1377   -9.3368   -5.6085 N   0  0  0  0  0  0  0  0  0  0  0  0
   10.9578   -8.1233   -5.5417 C   0  0  1  0  0  0  0  0  0  0  0  0
   11.2943   -7.8765   -4.0914 C   0  0  0  0  0  0  0  0  0  0  0  0
   12.0963   -8.1348   -6.6106 C   0  0  0  0  0  0  0  0  0  0  0  0
   11.8022   -8.3869   -7.7905 O   0  0  0  0  0  0  0  0  0  0  0  0
   13.4044   -7.8056   -6.4330 N   0  0  0  0  0  0  0  0  0  0  0  0
   14.3641   -8.0224   -5.3292 C   0  0  2  0  0  0  0  0  0  0  0  0
   14.2113   -9.4101   -4.7146 C   0  0  0  0  0  0  0  0  0  0  0  0
   14.4883   -6.8816   -4.2757 C   0  0  0  0  0  0  0  0  0  0  0  0
   14.1926   -7.0495   -3.0972 O   0  0  0  0  0  0  0  0  0  0  0  0
   14.8751   -5.6255   -4.7595 N   0  0  0  0  0  0  0  0  0  0  0  0
   16.2318   -5.4758   -5.2736 C   0  0  0  0  0  0  0  0  0  0  0  0
   14.2936   -4.4371   -4.0776 C   0  0  1  0  0  0  0  0  0  0  0  0
   12.7739   -4.5325   -4.1162 C   0  0  0  0  0  0  0  0  0  0  0  0
   12.0961   -4.5008   -5.4774 C   0  0  0  0  0  0  0  0  0  0  0  0
   10.5870   -4.5445   -5.1931 C   0  0  0  0  0  0  0  0  0  0  0  0
   12.5921   -3.2548   -6.2180 C   0  0  0  0  0  0  0  0  0  0  0  0
   14.9067   -4.0413   -2.6961 C   0  0  0  0  0  0  0  0  0  0  0  0
   16.1389   -4.0593   -2.5475 O   0  0  0  0  0  0  0  0  0  0  0  0
   14.2015   -3.5315   -1.6394 N   0  0  0  0  0  0  0  0  0  0  0  0
   12.7570   -3.2412   -1.3654 C   0  0  1  0  0  0  0  0  0  0  0  0
   12.5034   -3.3393    0.1431 C   0  0  0  0  0  0  0  0  0  0  0  0
   12.8887   -4.6541    0.8857 C   0  0  0  0  0  0  0  0  0  0  0  0
   14.3769   -5.0075    0.9035 C   0  0  0  0  0  0  0  0  0  0  0  0
   12.3960   -4.5319    2.3365 C   0  0  0  0  0  0  0  0  0  0  0  0
   12.4253   -1.8947   -2.2211 C   0  0  0  0  0  0  0  0  0  0  0  0
   13.1921   -1.7278   -3.1840 O   0  0  0  0  0  0  0  0  0  0  0  0
   11.3111   -1.0514   -2.1363 N   0  0  0  0  0  0  0  0  0  0  0  0
   10.6265   -0.8503   -0.8611 C   0  0  0  0  0  0  0  0  0  0  0  0
   11.0230    0.0940   -3.1710 C   0  0  1  0  0  0  0  0  0  0  0  0
   12.0093    0.3489   -4.3763 C   0  0  0  0  0  0  0  0  0  0  0  0
   11.5120    1.4703   -5.3177 C   0  0  0  0  0  0  0  0  0  0  0  0
   13.4790    0.7052   -4.0790 C   0  0  0  0  0  0  0  0  0  0  0  0
    9.4488    0.2709   -3.6564 C   0  0  0  0  0  0  0  0  0  0  0  0
    8.6978    0.9190   -2.9179 O   0  0  0  0  0  0  0  0  0  0  0  0
    8.9915   -0.3056   -4.8749 N   0  0  0  0  0  0  0  0  0  0  0  0
    9.7831   -1.3267   -5.4671 C   0  0  0  0  0  0  0  0  0  0  0  0
    1.0857    2.1558    0.1977 H   0  0  0  0  0  0  0  0  0  0  0  0
    1.7165    3.4438   -0.8349 H   0  0  0  0  0  0  0  0  0  0  0  0
    2.7473    2.7089    0.4210 H   0  0  0  0  0  0  0  0  0  0  0  0
    2.0387    0.4694   -1.1819 H   0  0  0  0  0  0  0  0  0  0  0  0
    3.7956    2.7096   -2.3239 H   0  0  0  0  0  0  0  0  0  0  0  0
    3.6934    0.9507   -4.1726 H   0  0  0  0  0  0  0  0  0  0  0  0
    3.4993   -0.3103   -3.0152 H   0  0  0  0  0  0  0  0  0  0  0  0
    6.0511    1.4718   -2.9701 H   0  0  0  0  0  0  0  0  0  0  0  0
    5.0721   -0.8995   -1.3680 H   0  0  0  0  0  0  0  0  0  0  0  0
    5.3843    0.7540   -0.8292 H   0  0  0  0  0  0  0  0  0  0  0  0
    6.7315   -0.2682   -1.2788 H   0  0  0  0  0  0  0  0  0  0  0  0
    7.2508   -0.6755   -3.3059 H   0  0  0  0  0  0  0  0  0  0  0  0
    4.9433   -1.7776   -3.7866 H   0  0  0  0  0  0  0  0  0  0  0  0
    7.4472   -1.2837   -5.6815 H   0  0  0  0  0  0  0  0  0  0  0  0
    7.2438    0.8468   -9.0005 H   0  0  0  0  0  0  0  0  0  0  0  0
    8.7210    2.6858   -7.9812 H   0  0  0  0  0  0  0  0  0  0  0  0
    7.6244    4.1753   -9.0485 H   0  0  0  0  0  0  0  0  0  0  0  0
    6.2232    3.9604   -8.0682 H   0  0  0  0  0  0  0  0  0  0  0  0
    6.6128    2.6963  -10.8188 H   0  0  0  0  0  0  0  0  0  0  0  0
    5.7268    4.1506  -10.3940 H   0  0  0  0  0  0  0  0  0  0  0  0
    5.1360    2.6093   -9.8056 H   0  0  0  0  0  0  0  0  0  0  0  0
    5.4875    3.6411   -5.6410 H   0  0  0  0  0  0  0  0  0  0  0  0
    6.0216    2.6629   -4.3451 H   0  0  0  0  0  0  0  0  0  0  0  0
    4.3102    2.5500   -4.9602 H   0  0  0  0  0  0  0  0  0  0  0  0
    4.5856   -0.1594   -5.4957 H   0  0  0  0  0  0  0  0  0  0  0  0
    4.1380    0.3082   -7.0964 H   0  0  0  0  0  0  0  0  0  0  0  0
    7.5177   -0.9407   -9.5237 H   0  0  0  0  0  0  0  0  0  0  0  0
    5.7341   -1.2199   -9.8225 H   0  0  0  0  0  0  0  0  0  0  0  0
    7.0409   -2.3218  -10.2276 H   0  0  0  0  0  0  0  0  0  0  0  0
    7.4399   -3.9126   -7.1119 H   0  0  0  0  0  0  0  0  0  0  0  0
    9.0134   -4.7339   -8.7937 H   0  0  0  0  0  0  0  0  0  0  0  0
    8.5822   -3.6118  -10.0145 H   0  0  0  0  0  0  0  0  0  0  0  0
   10.2619   -3.2366   -7.6016 H   0  0  0  0  0  0  0  0  0  0  0  0
   11.0619   -2.8806  -10.5278 H   0  0  0  0  0  0  0  0  0  0  0  0
   11.3527   -4.3662   -9.5948 H   0  0  0  0  0  0  0  0  0  0  0  0
   12.1420   -2.8527   -9.1435 H   0  0  0  0  0  0  0  0  0  0  0  0
    9.8533   -0.9808   -9.6204 H   0  0  0  0  0  0  0  0  0  0  0  0
   10.9289   -0.9847   -8.2329 H   0  0  0  0  0  0  0  0  0  0  0  0
    9.1986   -1.0493   -7.9778 H   0  0  0  0  0  0  0  0  0  0  0  0
    5.2008   -5.9812   -9.3789 H   0  0  0  0  0  0  0  0  0  0  0  0
    4.9747   -7.0558   -7.5151 H   0  0  0  0  0  0  0  0  0  0  0  0
    6.0127   -4.6612   -6.0107 H   0  0  0  0  0  0  0  0  0  0  0  0
    4.5080   -7.0202   -4.8998 H   0  0  0  0  0  0  0  0  0  0  0  0
    5.0579   -5.5582   -4.0448 H   0  0  0  0  0  0  0  0  0  0  0  0
    6.2418   -6.6954   -4.6830 H   0  0  0  0  0  0  0  0  0  0  0  0
    3.1583   -5.6246   -6.7003 H   0  0  0  0  0  0  0  0  0  0  0  0
    3.9269   -4.1858   -7.3433 H   0  0  0  0  0  0  0  0  0  0  0  0
    3.5363   -4.2771   -5.6165 H   0  0  0  0  0  0  0  0  0  0  0  0
    5.2593   -8.8629   -7.5085 H   0  0  0  0  0  0  0  0  0  0  0  0
    6.2771   -9.6298   -6.3136 H   0  0  0  0  0  0  0  0  0  0  0  0
    6.4023  -10.0690   -8.0523 H   0  0  0  0  0  0  0  0  0  0  0  0
    9.3722   -7.8693   -7.5841 H   0  0  0  0  0  0  0  0  0  0  0  0
    9.9978   -9.7824   -9.0019 H   0  0  0  0  0  0  0  0  0  0  0  0
    8.3403  -10.3227   -9.0359 H   0  0  0  0  0  0  0  0  0  0  0  0
    7.6506   -8.1548  -10.1295 H   0  0  0  0  0  0  0  0  0  0  0  0
   10.6520   -7.5970  -10.4190 H   0  0  0  0  0  0  0  0  0  0  0  0
    9.5776   -6.7123   -9.3376 H   0  0  0  0  0  0  0  0  0  0  0  0
    9.3136   -6.6376  -11.0735 H   0  0  0  0  0  0  0  0  0  0  0  0
    9.8591   -9.6602  -11.6153 H   0  0  0  0  0  0  0  0  0  0  0  0
    8.5350   -8.7286  -12.3386 H   0  0  0  0  0  0  0  0  0  0  0  0
    8.1834  -10.2150  -11.4438 H   0  0  0  0  0  0  0  0  0  0  0  0
   10.2720  -10.0300   -4.8836 H   0  0  0  0  0  0  0  0  0  0  0  0
   10.3217   -7.2878   -5.8513 H   0  0  0  0  0  0  0  0  0  0  0  0
   11.6666   -8.7574   -3.5691 H   0  0  0  0  0  0  0  0  0  0  0  0
   10.4127   -7.5310   -3.5384 H   0  0  0  0  0  0  0  0  0  0  0  0
   12.0340   -7.1020   -4.0227 H   0  0  0  0  0  0  0  0  0  0  0  0
   13.8461   -7.8270   -7.3457 H   0  0  0  0  0  0  0  0  0  0  0  0
   15.3354   -8.0404   -5.8350 H   0  0  0  0  0  0  0  0  0  0  0  0
   13.1744   -9.7468   -4.6766 H   0  0  0  0  0  0  0  0  0  0  0  0
   14.6237   -9.4605   -3.7036 H   0  0  0  0  0  0  0  0  0  0  0  0
   14.7388  -10.1471   -5.3300 H   0  0  0  0  0  0  0  0  0  0  0  0
   16.5147   -6.3217   -5.9046 H   0  0  0  0  0  0  0  0  0  0  0  0
   16.9359   -5.4447   -4.4372 H   0  0  0  0  0  0  0  0  0  0  0  0
   16.3127   -4.5577   -5.8630 H   0  0  0  0  0  0  0  0  0  0  0  0
   14.5936   -3.5887   -4.7073 H   0  0  0  0  0  0  0  0  0  0  0  0
   12.3408   -3.6650   -3.6603 H   0  0  0  0  0  0  0  0  0  0  0  0
   12.4272   -5.3489   -3.4895 H   0  0  0  0  0  0  0  0  0  0  0  0
   12.3479   -5.3796   -6.0713 H   0  0  0  0  0  0  0  0  0  0  0  0
   10.2608   -3.7287   -4.5503 H   0  0  0  0  0  0  0  0  0  0  0  0
   10.3179   -5.4378   -4.6267 H   0  0  0  0  0  0  0  0  0  0  0  0
    9.9874   -4.5518   -6.0993 H   0  0  0  0  0  0  0  0  0  0  0  0
   12.9743   -2.4866   -5.5427 H   0  0  0  0  0  0  0  0  0  0  0  0
   11.8368   -2.7445   -6.7889 H   0  0  0  0  0  0  0  0  0  0  0  0
   13.4110   -3.5181   -6.8942 H   0  0  0  0  0  0  0  0  0  0  0  0
   14.8543   -3.1611   -0.9605 H   0  0  0  0  0  0  0  0  0  0  0  0
   12.1666   -4.0562   -1.7874 H   0  0  0  0  0  0  0  0  0  0  0  0
   11.4193   -3.2888    0.2807 H   0  0  0  0  0  0  0  0  0  0  0  0
   12.9552   -2.4797    0.6516 H   0  0  0  0  0  0  0  0  0  0  0  0
   12.3527   -5.4945    0.4229 H   0  0  0  0  0  0  0  0  0  0  0  0
   14.9931   -4.1359    1.1446 H   0  0  0  0  0  0  0  0  0  0  0  0
   14.7004   -5.4189   -0.0566 H   0  0  0  0  0  0  0  0  0  0  0  0
   14.5912   -5.7832    1.6480 H   0  0  0  0  0  0  0  0  0  0  0  0
   12.8572   -3.6699    2.8316 H   0  0  0  0  0  0  0  0  0  0  0  0
   12.6348   -5.4265    2.9207 H   0  0  0  0  0  0  0  0  0  0  0  0
   11.3096   -4.3971    2.3663 H   0  0  0  0  0  0  0  0  0  0  0  0
   10.9102   -1.5407   -0.0900 H   0  0  0  0  0  0  0  0  0  0  0  0
    9.5416   -0.9096   -0.9984 H   0  0  0  0  0  0  0  0  0  0  0  0
   10.8977    0.1378   -0.4819 H   0  0  0  0  0  0  0  0  0  0  0  0
   11.1688    0.9901   -2.5499 H   0  0  0  0  0  0  0  0  0  0  0  0
   12.0546   -0.5753   -4.9521 H   0  0  0  0  0  0  0  0  0  0  0  0
   11.9311    2.4412   -5.0415 H   0  0  0  0  0  0  0  0  0  0  0  0
   10.4337    1.6182   -5.3324 H   0  0  0  0  0  0  0  0  0  0  0  0
   11.8121    1.2437   -6.3455 H   0  0  0  0  0  0  0  0  0  0  0  0
   13.6411    1.7791   -3.9846 H   0  0  0  0  0  0  0  0  0  0  0  0
   14.0843    0.3580   -4.9303 H   0  0  0  0  0  0  0  0  0  0  0  0
   13.9012    0.2668   -3.1765 H   0  0  0  0  0  0  0  0  0  0  0  0
   10.3833   -1.8034   -4.7031 H   0  0  0  0  0  0  0  0  0  0  0  0
   10.4188   -0.8496   -6.2024 H   0  0  0  0  0  0  0  0  0  0  0  0
    9.1760   -2.0977   -5.9440 H   0  0  0  0  0  0  0  0  0  0  0  0
  1  2  1  0  0  0  0
  1 85  1  0  0  0  0
  1 86  1  0  0  0  0
  1 87  1  0  0  0  0
  2  3  2  0  0  0  0
  2 88  1  0  0  0  0
  3  4  1  0  0  0  0
  3 89  1  0  0  0  0
  4  5  1  0  0  0  0
  4 90  1  0  0  0  0
  4 91  1  0  0  0  0
  5  6  1  0  0  0  0
  5  7  1  0  0  0  0
  5 92  1  6  0  0  0
  6 93  1  0  0  0  0
  6 94  1  0  0  0  0
  6 95  1  0  0  0  0
  7  8  1  0  0  0  0
  7  9  1  0  0  0  0
  7 96  1  1  0  0  0
  8 97  1  0  0  0  0
  9 10  1  0  0  0  0
  9 83  1  0  0  0  0
  9 98  1  6  0  0  0
 10 11  2  0  0  0  0
 10 12  1  0  0  0  0
 12 13  1  0  0  0  0
 12 99  1  0  0  0  0
 13 14  1  0  0  0  0
 13 16  1  0  0  0  0
 13100  1  1  0  0  0
 14 15  1  0  0  0  0
 14101  1  0  0  0  0
 14102  1  0  0  0  0
 15103  1  0  0  0  0
 15104  1  0  0  0  0
 15105  1  0  0  0  0
 16 17  2  0  0  0  0
 16 18  1  0  0  0  0
 18 19  1  0  0  0  0
 18 20  1  0  0  0  0
 19106  1  0  0  0  0
 19107  1  0  0  0  0
 19108  1  0  0  0  0
 20 21  1  0  0  0  0
 20109  1  0  0  0  0
 20110  1  0  0  0  0
 21 22  2  0  0  0  0
 21 23  1  0  0  0  0
 23 24  1  0  0  0  0
 23 25  1  0  0  0  0
 24111  1  0  0  0  0
 24112  1  0  0  0  0
 24113  1  0  0  0  0
 25 30  1  0  0  0  0
 25 26  1  0  0  0  0
 25114  1  1  0  0  0
 26 27  1  0  0  0  0
 26115  1  0  0  0  0
 26116  1  0  0  0  0
 27 28  1  0  0  0  0
 27 29  1  0  0  0  0
 27117  1  0  0  0  0
 28118  1  0  0  0  0
 28119  1  0  0  0  0
 28120  1  0  0  0  0
 29121  1  0  0  0  0
 29122  1  0  0  0  0
 29123  1  0  0  0  0
 30 31  2  0  0  0  0
 30 32  1  0  0  0  0
 32 33  1  0  0  0  0
 32124  1  0  0  0  0
 33 37  1  0  0  0  0
 33 34  1  0  0  0  0
 33125  1  6  0  0  0
 34 35  1  0  0  0  0
 34 36  1  0  0  0  0
 34126  1  0  0  0  0
 35127  1  0  0  0  0
 35128  1  0  0  0  0
 35129  1  0  0  0  0
 36130  1  0  0  0  0
 36131  1  0  0  0  0
 36132  1  0  0  0  0
 37 38  2  0  0  0  0
 37 39  1  0  0  0  0
 39 40  1  0  0  0  0
 39 41  1  0  0  0  0
 40133  1  0  0  0  0
 40134  1  0  0  0  0
 40135  1  0  0  0  0
 41 46  1  0  0  0  0
 41 42  1  0  0  0  0
 41136  1  1  0  0  0
 42 43  1  0  0  0  0
 42137  1  0  0  0  0
 42138  1  0  0  0  0
 43 44  1  0  0  0  0
 43 45  1  0  0  0  0
 43139  1  0  0  0  0
 44140  1  0  0  0  0
 44141  1  0  0  0  0
 44142  1  0  0  0  0
 45143  1  0  0  0  0
 45144  1  0  0  0  0
 45145  1  0  0  0  0
 46 47  2  0  0  0  0
 46 48  1  0  0  0  0
 48 49  1  0  0  0  0
 48146  1  0  0  0  0
 49 50  1  0  0  0  0
 49 51  1  0  0  0  0
 49147  1  6  0  0  0
 50148  1  0  0  0  0
 50149  1  0  0  0  0
 50150  1  0  0  0  0
 51 52  2  0  0  0  0
 51 53  1  0  0  0  0
 53 54  1  0  0  0  0
 53151  1  0  0  0  0
 54 56  1  0  0  0  0
 54 55  1  0  0  0  0
 54152  1  6  0  0  0
 55153  1  0  0  0  0
 55154  1  0  0  0  0
 55155  1  0  0  0  0
 56 57  2  0  0  0  0
 56 58  1  0  0  0  0
 58 59  1  0  0  0  0
 58 60  1  0  0  0  0
 59156  1  0  0  0  0
 59157  1  0  0  0  0
 59158  1  0  0  0  0
 60 61  1  0  0  0  0
 60 65  1  0  0  0  0
 60159  1  6  0  0  0
 61 62  1  0  0  0  0
 61160  1  0  0  0  0
 61161  1  0  0  0  0
 62 63  1  0  0  0  0
 62 64  1  0  0  0  0
 62162  1  0  0  0  0
 63163  1  0  0  0  0
 63164  1  0  0  0  0
 63165  1  0  0  0  0
 64166  1  0  0  0  0
 64167  1  0  0  0  0
 64168  1  0  0  0  0
 65 66  2  0  0  0  0
 65 67  1  0  0  0  0
 67 68  1  0  0  0  0
 67169  1  0  0  0  0
 68 69  1  0  0  0  0
 68 73  1  0  0  0  0
 68170  1  6  0  0  0
 69 70  1  0  0  0  0
 69171  1  0  0  0  0
 69172  1  0  0  0  0
 70 71  1  0  0  0  0
 70 72  1  0  0  0  0
 70173  1  0  0  0  0
 71174  1  0  0  0  0
 71175  1  0  0  0  0
 71176  1  0  0  0  0
 72177  1  0  0  0  0
 72178  1  0  0  0  0
 72179  1  0  0  0  0
 73 74  2  0  0  0  0
 73 75  1  0  0  0  0
 75 76  1  0  0  0  0
 75 77  1  0  0  0  0
 76180  1  0  0  0  0
 76181  1  0  0  0  0
 76182  1  0  0  0  0
 77 78  1  0  0  0  0
 77 81  1  0  0  0  0
 77183  1  1  0  0  0
 78 79  1  0  0  0  0
 78 80  1  0  0  0  0
 78184  1  0  0  0  0
 79185  1  0  0  0  0
 79186  1  0  0  0  0
 79187  1  0  0  0  0
 80188  1  0  0  0  0
 80189  1  0  0  0  0
 80190  1  0  0  0  0
 81 82  2  0  0  0  0
 81 83  1  0  0  0  0
 83 84  1  0  0  0  0
 84191  1  0  0  0  0
 84192  1  0  0  0  0
 84193  1  0  0  0  0
M  END
>  <Energy>
923.231

$$$$