25158436
  -OEChem-03242010103D

 63 66  0     0  0  0  0  0  0999 V2000
    9.0399    0.0592   -0.6663 F   0  0  0  0  0  0  0  0  0  0  0  0
   -2.6879    1.9763    0.8764 O   0  0  0  0  0  0  0  0  0  0  0  0
   -0.3563   -3.2317    0.5598 O   0  0  0  0  0  0  0  0  0  0  0  0
    0.7809    0.7765    0.5398 N   0  0  0  0  0  0  0  0  0  0  0  0
    3.6194    0.5726    0.2927 N   0  0  0  0  0  0  0  0  0  0  0  0
    1.5264   -0.2125    1.3278 C   0  0  0  0  0  0  0  0  0  0  0  0
    1.5979    1.9813    0.3489 C   0  0  0  0  0  0  0  0  0  0  0  0
    2.8237   -0.6142    0.6215 C   0  0  0  0  0  0  0  0  0  0  0  0
    2.8966    1.6526   -0.3909 C   0  0  0  0  0  0  0  0  0  0  0  0
   -0.4811    1.1116    1.1985 C   0  0  0  0  0  0  0  0  0  0  0  0
    4.9912    0.4427    0.0495 C   0  0  0  0  0  0  0  0  0  0  0  0
   -1.4739    1.6818    0.1981 C   0  0  0  0  0  0  0  0  0  0  0  0
    5.4948   -0.7398   -0.4923 C   0  0  0  0  0  0  0  0  0  0  0  0
    5.8553    1.4959    0.3495 C   0  0  0  0  0  0  0  0  0  0  0  0
   -3.8409    1.9040    0.1392 C   0  0  0  0  0  0  0  0  0  0  0  0
   -4.8598    1.0197    0.4934 C   0  0  0  0  0  0  0  0  0  0  0  0
   -4.7191    0.1318    1.6854 C   0  0  0  0  0  0  0  0  0  0  0  0
    6.8624   -0.8692   -0.7341 C   0  0  0  0  0  0  0  0  0  0  0  0
    7.2229    1.3664    0.1079 C   0  0  0  0  0  0  0  0  0  0  0  0
   -4.8206   -1.3714    1.3625 C   0  0  0  0  0  0  0  0  0  0  0  0
    7.7264    0.1838   -0.4341 C   0  0  0  0  0  0  0  0  0  0  0  0
   -3.9889    2.7271   -0.9772 C   0  0  0  0  0  0  0  0  0  0  0  0
   -6.0264    0.9584   -0.2688 C   0  0  0  0  0  0  0  0  0  0  0  0
   -3.7419   -1.8521    0.4226 C   0  0  0  0  0  0  0  0  0  0  0  0
   -5.1554    2.6658   -1.7393 C   0  0  0  0  0  0  0  0  0  0  0  0
   -6.1743    1.7813   -1.3851 C   0  0  0  0  0  0  0  0  0  0  0  0
   -2.5325   -2.3250    0.9319 C   0  0  0  0  0  0  0  0  0  0  0  0
   -3.9546   -1.8234   -0.9556 C   0  0  0  0  0  0  0  0  0  0  0  0
   -1.5360   -2.7695    0.0630 C   0  0  0  0  0  0  0  0  0  0  0  0
   -2.9580   -2.2677   -1.8246 C   0  0  0  0  0  0  0  0  0  0  0  0
   -1.7488   -2.7408   -1.3151 C   0  0  0  0  0  0  0  0  0  0  0  0
    0.6186   -3.6711   -0.3849 C   0  0  0  0  0  0  0  0  0  0  0  0
    0.9250   -1.1144    1.4784 H   0  0  0  0  0  0  0  0  0  0  0  0
    1.7608    0.1884    2.3234 H   0  0  0  0  0  0  0  0  0  0  0  0
    1.8381    2.4447    1.3156 H   0  0  0  0  0  0  0  0  0  0  0  0
    1.0642    2.7304   -0.2454 H   0  0  0  0  0  0  0  0  0  0  0  0
    3.3805   -1.2832    1.2894 H   0  0  0  0  0  0  0  0  0  0  0  0
    2.5876   -1.1675   -0.2958 H   0  0  0  0  0  0  0  0  0  0  0  0
    2.6764    1.3429   -1.4208 H   0  0  0  0  0  0  0  0  0  0  0  0
    3.4956    2.5685   -0.4508 H   0  0  0  0  0  0  0  0  0  0  0  0
   -0.3416    1.7960    2.0458 H   0  0  0  0  0  0  0  0  0  0  0  0
   -0.9412    0.2125    1.6289 H   0  0  0  0  0  0  0  0  0  0  0  0
   -1.6455    0.9542   -0.6069 H   0  0  0  0  0  0  0  0  0  0  0  0
   -1.1051    2.6108   -0.2480 H   0  0  0  0  0  0  0  0  0  0  0  0
    4.8501   -1.5749   -0.7512 H   0  0  0  0  0  0  0  0  0  0  0  0
    5.4847    2.4199    0.7857 H   0  0  0  0  0  0  0  0  0  0  0  0
   -3.7754    0.3115    2.2138 H   0  0  0  0  0  0  0  0  0  0  0  0
   -5.5092    0.3921    2.4020 H   0  0  0  0  0  0  0  0  0  0  0  0
    7.2548   -1.7885   -1.1587 H   0  0  0  0  0  0  0  0  0  0  0  0
    7.8965    2.1847    0.3444 H   0  0  0  0  0  0  0  0  0  0  0  0
   -5.8043   -1.6195    0.9445 H   0  0  0  0  0  0  0  0  0  0  0  0
   -4.7579   -1.9383    2.3007 H   0  0  0  0  0  0  0  0  0  0  0  0
   -3.2081    3.4274   -1.2610 H   0  0  0  0  0  0  0  0  0  0  0  0
   -6.8360    0.2848   -0.0019 H   0  0  0  0  0  0  0  0  0  0  0  0
   -5.2717    3.3083   -2.6072 H   0  0  0  0  0  0  0  0  0  0  0  0
   -7.0838    1.7358   -1.9770 H   0  0  0  0  0  0  0  0  0  0  0  0
   -2.3592   -2.3468    2.0051 H   0  0  0  0  0  0  0  0  0  0  0  0
   -4.8956   -1.4757   -1.3710 H   0  0  0  0  0  0  0  0  0  0  0  0
   -3.1262   -2.2485   -2.8975 H   0  0  0  0  0  0  0  0  0  0  0  0
   -1.0194   -3.0725   -2.0462 H   0  0  0  0  0  0  0  0  0  0  0  0
    1.4998   -3.9874    0.1829 H   0  0  0  0  0  0  0  0  0  0  0  0
    0.9382   -2.8575   -1.0442 H   0  0  0  0  0  0  0  0  0  0  0  0
    0.2673   -4.5436   -0.9460 H   0  0  0  0  0  0  0  0  0  0  0  0
  1 21  1  0  0  0  0
  2 12  1  0  0  0  0
  2 15  1  0  0  0  0
  3 29  1  0  0  0  0
  3 32  1  0  0  0  0
  4  6  1  0  0  0  0
  4  7  1  0  0  0  0
  4 10  1  0  0  0  0
  5  8  1  0  0  0  0
  5  9  1  0  0  0  0
  5 11  1  0  0  0  0
  6  8  1  0  0  0  0
  6 33  1  0  0  0  0
  6 34  1  0  0  0  0
  7  9  1  0  0  0  0
  7 35  1  0  0  0  0
  7 36  1  0  0  0  0
  8 37  1  0  0  0  0
  8 38  1  0  0  0  0
  9 39  1  0  0  0  0
  9 40  1  0  0  0  0
 10 12  1  0  0  0  0
 10 41  1  0  0  0  0
 10 42  1  0  0  0  0
 11 13  2  0  0  0  0
 11 14  1  0  0  0  0
 12 43  1  0  0  0  0
 12 44  1  0  0  0  0
 13 18  1  0  0  0  0
 13 45  1  0  0  0  0
 14 19  2  0  0  0  0
 14 46  1  0  0  0  0
 15 16  1  0  0  0  0
 15 22  2  0  0  0  0
 16 17  1  0  0  0  0
 16 23  2  0  0  0  0
 17 20  1  0  0  0  0
 17 47  1  0  0  0  0
 17 48  1  0  0  0  0
 18 21  2  0  0  0  0
 18 49  1  0  0  0  0
 19 21  1  0  0  0  0
 19 50  1  0  0  0  0
 20 24  1  0  0  0  0
 20 51  1  0  0  0  0
 20 52  1  0  0  0  0
 22 25  1  0  0  0  0
 22 53  1  0  0  0  0
 23 26  1  0  0  0  0
 23 54  1  0  0  0  0
 24 27  2  0  0  0  0
 24 28  1  0  0  0  0
 25 26  2  0  0  0  0
 25 55  1  0  0  0  0
 26 56  1  0  0  0  0
 27 29  1  0  0  0  0
 27 57  1  0  0  0  0
 28 30  2  0  0  0  0
 28 58  1  0  0  0  0
 29 31  2  0  0  0  0
 30 31  1  0  0  0  0
 30 59  1  0  0  0  0
 31 60  1  0  0  0  0
 32 61  1  0  0  0  0
 32 62  1  0  0  0  0
 32 63  1  0  0  0  0
M  END
> <PUBCHEM_COMPOUND_CID>
25158436

> <PUBCHEM_CONFORMER_RMSD>
1.2

> <PUBCHEM_CONFORMER_DIVERSEORDER>
2
118
89
165
74
25
84
107
102
63
184
40
43
104
77
36
110
148
99
177
85
58
151
187
10
132
31
193
205
195
144
181
152
145
114
98
8
162
179
131
129
39
56
44
202
30
76
96
19
186
180
111
140
127
79
188
133
201
91
70
142
190
182
71
189
1
17
59
138
97
154
119
65
23
158
80
146
130
93
155
153
101
169
34
35
204
137
72
178
82
166
57
51
139
149
122
13
125
69
86
27
171
174
196
42
95
16
61
62
183
167
159
141
55
52
15
88
106
92
161
173
87
68
45
48
143
134
147
54
105
109
64
103
120
175
121
28
194
9
128
32
94
108
191
7
170
136
53
5
124
156
100
81
112
21
123
198
22
113
29
14
115
6
208
126
11
164
116
185
203
37
18
50
26
60
33
24
163
197
206
20
49
73
46
207
4
199
172
38
83
157
3
168
41
192
66
47
117
160
78
90
12
67
200
75
176
150
135

> <PUBCHEM_MMFF94_PARTIAL_CHARGES>
44
1 -0.19
10 0.27
11 0.1
12 0.28
13 -0.15
14 -0.15
15 0.08
16 -0.14
17 0.14
18 -0.15
19 -0.15
2 -0.36
20 0.14
21 0.19
22 -0.15
23 -0.15
24 -0.14
25 -0.15
26 -0.15
27 -0.15
28 -0.15
29 0.08
3 -0.36
30 -0.15
31 -0.15
32 0.28
4 -0.81
45 0.15
46 0.15
49 0.15
5 -0.84
50 0.15
53 0.15
54 0.15
55 0.15
56 0.15
57 0.15
58 0.15
59 0.15
6 0.27
60 0.15
7 0.27
8 0.37
9 0.37

> <PUBCHEM_EFFECTIVE_ROTOR_COUNT>
10.2

> <PUBCHEM_PHARMACOPHORE_FEATURES>
8
1 2 acceptor
1 3 acceptor
1 4 cation
1 5 cation
6 11 13 14 18 19 21 rings
6 15 16 22 23 25 26 rings
6 24 27 28 29 30 31 rings
6 4 5 6 7 8 9 rings

> <PUBCHEM_HEAVY_ATOM_COUNT>
32

> <PUBCHEM_ATOM_DEF_STEREO_COUNT>
0

> <PUBCHEM_ATOM_UDEF_STEREO_COUNT>
0

> <PUBCHEM_BOND_DEF_STEREO_COUNT>
0

> <PUBCHEM_BOND_UDEF_STEREO_COUNT>
0

> <PUBCHEM_ISOTOPIC_ATOM_COUNT>
0

> <PUBCHEM_COMPONENT_COUNT>
1

> <PUBCHEM_CACTVS_TAUTO_COUNT>
1

> <PUBCHEM_CONFORMER_ID>
017FE32400000002

> <PUBCHEM_MMFF94_ENERGY>
107.3541

> <PUBCHEM_FEATURE_SELFOVERLAP>
40.6

> <PUBCHEM_SHAPE_FINGERPRINT>
10391435 84 18272644676155109592
10670039 82 18411132571640113611
10816530 145 11242265021829069077
10864689 126 18341603781395385096
11135926 11 18271250425821005906
11273773 118 17385716976704270742
11524674 6 17704354368328132701
11578080 2 16878768398246101175
12522641 33 18189887627547181725
14856354 85 16153712067261511459
14930077 153 18041573545364898572
15021287 119 17676494977121935060
15183329 4 18411979170203472994
15274700 242 17822274783263664322
15439362 3 17975410214494827909
15849732 13 18113622270258287372
17627616 140 18264482901925196083
18681886 176 18335416885252874680
20721686 146 15503480545720522781
20771845 165 17898568666622986365
21236236 1 18341896320323114882
21279426 13 18342183237245351606
22899556 105 18057011767362748567
23559900 14 18130217259111825704
23569943 247 12965758269097531940
23576562 1 18113900510787495132
249057 3 18409166618990416020
3298306 158 18338226069364181817
338550 245 18408893953275842542
4015057 19 17060048302535924081
445580 160 18413675712165326820
44802255 64 17968088686871427285
484985 159 17060051601698190973
5085150 59 18201147794166119302
5265222 85 18337674216867904980
7226269 152 18131073744309409944
7288768 16 17676205754309130819

> <PUBCHEM_SHAPE_MULTIPOLES>
629.57
19.94
3.84
1.4
38.82
2.34
0.14
-8.23
4.56
-4.71
0.98
-1.93
0.11
1.41

> <PUBCHEM_SHAPE_SELFOVERLAP>
1342.294

> <PUBCHEM_SHAPE_VOLUME>
351.8

> <PUBCHEM_COORDINATE_TYPE>
2
5
10

$$$$