56945299
  -OEChem-03242010093D

 31 32  0     0  0  0  0  0  0999 V2000
    6.6086   -0.9633   -0.0599 Br  0  0  0  0  0  0  0  0  0  0  0  0
   -3.6933    2.4207   -0.7696 O   0  0  0  0  0  0  0  0  0  0  0  0
   -5.1139   -1.8804    0.7864 O   0  0  0  0  0  0  0  0  0  0  0  0
   -5.7157    0.7290    0.0793 O   0  0  0  0  0  0  0  0  0  0  0  0
   -0.2186   -2.3297   -0.3550 O   0  0  0  0  0  0  0  0  0  0  0  0
    2.1316    2.8219   -0.6495 O   0  5  0  0  0  0  0  0  0  0  0  0
    2.0870    2.4705    1.5170 O   0  0  0  0  0  0  0  0  0  0  0  0
    0.5685   -0.1405   -0.0484 N   0  0  0  0  0  0  0  0  0  0  0  0
    2.3249    2.0880    0.3476 N   0  3  0  0  0  0  0  0  0  0  0  0
   -1.7993   -0.6385   -0.1250 C   0  0  0  0  0  0  0  0  0  0  0  0
    1.9750   -0.3092   -0.0485 C   0  0  0  0  0  0  0  0  0  0  0  0
   -0.4275   -1.1161   -0.1955 C   0  0  0  0  0  0  0  0  0  0  0  0
    2.8326    0.7738    0.1449 C   0  0  0  0  0  0  0  0  0  0  0  0
   -2.8154   -1.4938    0.3012 C   0  0  0  0  0  0  0  0  0  0  0  0
   -2.0987    0.6760   -0.4831 C   0  0  0  0  0  0  0  0  0  0  0  0
    2.4986   -1.5870   -0.2454 C   0  0  0  0  0  0  0  0  0  0  0  0
   -3.4141    1.1352   -0.4150 C   0  0  0  0  0  0  0  0  0  0  0  0
   -4.1308   -1.0345    0.3694 C   0  0  0  0  0  0  0  0  0  0  0  0
   -4.4301    0.2799    0.0112 C   0  0  0  0  0  0  0  0  0  0  0  0
    4.2138    0.5789    0.1417 C   0  0  0  0  0  0  0  0  0  0  0  0
    3.8796   -1.7820   -0.2487 C   0  0  0  0  0  0  0  0  0  0  0  0
    4.7373   -0.6990   -0.0551 C   0  0  0  0  0  0  0  0  0  0  0  0
    0.2705    0.8114    0.1392 H   0  0  0  0  0  0  0  0  0  0  0  0
   -2.5893   -2.5184    0.5872 H   0  0  0  0  0  0  0  0  0  0  0  0
   -1.3396    1.3562   -0.8590 H   0  0  0  0  0  0  0  0  0  0  0  0
    1.9099   -2.4773   -0.4088 H   0  0  0  0  0  0  0  0  0  0  0  0
    4.8819    1.4246    0.2927 H   0  0  0  0  0  0  0  0  0  0  0  0
    4.2730   -2.7833   -0.4047 H   0  0  0  0  0  0  0  0  0  0  0  0
   -2.8697    2.8649   -1.0345 H   0  0  0  0  0  0  0  0  0  0  0  0
   -4.7222   -2.7468    0.9910 H   0  0  0  0  0  0  0  0  0  0  0  0
   -5.7313    1.6593   -0.2052 H   0  0  0  0  0  0  0  0  0  0  0  0
  1 22  1  0  0  0  0
  2 17  1  0  0  0  0
  2 29  1  0  0  0  0
  3 18  1  0  0  0  0
  3 30  1  0  0  0  0
  4 19  1  0  0  0  0
  4 31  1  0  0  0  0
  5 12  2  0  0  0  0
  6  9  1  0  0  0  0
  7  9  2  0  0  0  0
  8 11  1  0  0  0  0
  8 12  1  0  0  0  0
  8 23  1  0  0  0  0
  9 13  1  0  0  0  0
 10 12  1  0  0  0  0
 10 14  2  0  0  0  0
 10 15  1  0  0  0  0
 11 13  2  0  0  0  0
 11 16  1  0  0  0  0
 13 20  1  0  0  0  0
 14 18  1  0  0  0  0
 14 24  1  0  0  0  0
 15 17  2  0  0  0  0
 15 25  1  0  0  0  0
 16 21  2  0  0  0  0
 16 26  1  0  0  0  0
 17 19  1  0  0  0  0
 18 19  2  0  0  0  0
 20 22  2  0  0  0  0
 20 27  1  0  0  0  0
 21 22  1  0  0  0  0
 21 28  1  0  0  0  0
M  CHG  2   6  -1   9   1
M  END
> <PUBCHEM_COMPOUND_CID>
56945299

> <PUBCHEM_CONFORMER_RMSD>
0.6

> <PUBCHEM_CONFORMER_DIVERSEORDER>
1
7
15
11
8
5
9
14
6
3
10
13
12
4
2

> <PUBCHEM_MMFF94_PARTIAL_CHARGES>
31
1 -0.11
10 0.09
11 0.12
12 0.54
13 0.13
14 -0.15
15 -0.15
16 -0.15
17 0.08
18 0.08
19 0.08
2 -0.53
20 -0.15
21 -0.15
22 0.11
23 0.37
24 0.15
25 0.15
26 0.15
27 0.15
28 0.15
29 0.45
3 -0.53
30 0.45
31 0.45
4 -0.53
5 -0.57
6 -0.52
7 -0.52
8 -0.55
9 0.91

> <PUBCHEM_EFFECTIVE_ROTOR_COUNT>
4

> <PUBCHEM_PHARMACOPHORE_FEATURES>
11
1 1 hydrophobe
1 2 donor
1 3 donor
1 4 donor
1 5 acceptor
1 6 acceptor
1 6 anion
1 7 acceptor
1 8 donor
6 10 14 15 17 18 19 rings
6 11 13 16 20 21 22 rings

> <PUBCHEM_HEAVY_ATOM_COUNT>
22

> <PUBCHEM_ATOM_DEF_STEREO_COUNT>
0

> <PUBCHEM_ATOM_UDEF_STEREO_COUNT>
0

> <PUBCHEM_BOND_DEF_STEREO_COUNT>
0

> <PUBCHEM_BOND_UDEF_STEREO_COUNT>
0

> <PUBCHEM_ISOTOPIC_ATOM_COUNT>
0

> <PUBCHEM_COMPONENT_COUNT>
1

> <PUBCHEM_CACTVS_TAUTO_COUNT>
25

> <PUBCHEM_CONFORMER_ID>
0364EA9300000001

> <PUBCHEM_MMFF94_ENERGY>
71.9096

> <PUBCHEM_FEATURE_SELFOVERLAP>
55.911

> <PUBCHEM_SHAPE_FINGERPRINT>
10366900 7 17530683225181523339
10608611 8 18410008823738278399
11045977 3 18335140912445196291
11405975 8 18410857668221478219
11545043 162 18040439914484923587
11595378 159 16443618005024208381
11646440 116 18059858359499733874
12107183 9 17466495712015804771
12236239 1 17385727993501236462
12403259 226 18409726274877572261
12403259 415 18412538816741377344
12507557 5 18344146985943635291
12596602 18 15357993277641756125
13402501 40 18409728422165976660
14341114 176 18410017649458299713
14466204 15 18336823079141097618
14866123 147 16974216795835580922
15196674 1 18410012160521873828
1601671 61 18411699847099952926
17844677 252 18408612473603224685
19433438 28 18408323310856762907
21033648 29 17916568878501366690
21065198 57 18409168835351445387
21267235 1 18408893944311699082
21279426 13 18122343476182996238
21315764 371 15358538721292921513
21709351 56 18412256250937906511
221357 26 18341327812471191381
22289505 5 18341611478244940628
23402539 116 18131626785704986878
23558518 356 17977092784922981398
23559900 14 18407755945782267801
3004659 81 18187932717142077566
335352 9 18411699876484235854
350125 39 18409735075107182797
351380 180 18410572894567504511
3545911 37 18411700963111065270
4214541 1 18409449176525114755
508706 21 18187912942484750477
5104073 3 18410009935691684186
7495541 125 18261397771260738974
77779 3 18408042900852638887
9709674 26 18263084469136906283

> <PUBCHEM_SHAPE_MULTIPOLES>
413.51
13.31
2.54
0.78
1.41
1.25
0.1
-2.19
0.52
0.09
0.08
0
0.23
1.15

> <PUBCHEM_SHAPE_SELFOVERLAP>
883.159

> <PUBCHEM_SHAPE_VOLUME>
235.5

> <PUBCHEM_COORDINATE_TYPE>
2
5
10

$$$$