44438016
  -OEChem-03242010103D

 72 77  0     1  0  0  0  0  0999 V2000
    0.8322   -3.3864    0.4384 O   0  0  0  0  0  0  0  0  0  0  0  0
    7.7471   -1.2936   -0.6270 O   0  0  0  0  0  0  0  0  0  0  0  0
   -7.0744    0.1865    0.1977 N   0  0  1  0  0  0  0  0  0  0  0  0
    0.6670   -1.0496    0.4785 N   0  0  0  0  0  0  0  0  0  0  0  0
    2.7287   -2.0446    0.1705 N   0  0  0  0  0  0  0  0  0  0  0  0
    5.4324   -1.2454   -0.2200 N   0  0  0  0  0  0  0  0  0  0  0  0
    7.8100    2.8222   -1.2223 N   0  0  0  0  0  0  0  0  0  0  0  0
   -7.3042    1.5849    0.5810 C   0  0  0  0  0  0  0  0  0  0  0  0
   -7.8508   -0.1444   -1.0104 C   0  0  0  0  0  0  0  0  0  0  0  0
   -8.7619    1.7733    1.0131 C   0  0  0  0  0  0  0  0  0  0  0  0
   -9.3137    0.2195   -0.8995 C   0  0  0  0  0  0  0  0  0  0  0  0
   -9.7429    1.1719    0.0408 C   0  0  0  0  0  0  0  0  0  0  0  0
   -5.6512   -0.0630   -0.0273 C   0  0  0  0  0  0  0  0  0  0  0  0
   -4.8959   -0.1612    1.2984 C   0  0  0  0  0  0  0  0  0  0  0  0
  -10.2435   -0.3476   -1.7816 C   0  0  0  0  0  0  0  0  0  0  0  0
  -11.0993    1.5150    0.1103 C   0  0  0  0  0  0  0  0  0  0  0  0
   -3.4226   -0.3966    1.0801 C   0  0  0  0  0  0  0  0  0  0  0  0
  -11.5903    0.0078   -1.7111 C   0  0  0  0  0  0  0  0  0  0  0  0
  -12.0180    0.9362   -0.7647 C   0  0  0  0  0  0  0  0  0  0  0  0
   -2.9287   -1.6987    0.9989 C   0  0  0  0  0  0  0  0  0  0  0  0
   -2.5533    0.6877    0.9606 C   0  0  0  0  0  0  0  0  0  0  0  0
   -1.5657   -1.9164    0.7985 C   0  0  0  0  0  0  0  0  0  0  0  0
   -1.1902    0.4700    0.7601 C   0  0  0  0  0  0  0  0  0  0  0  0
   -0.6965   -0.8321    0.6791 C   0  0  0  0  0  0  0  0  0  0  0  0
    1.3590   -2.2806    0.3689 C   0  0  0  0  0  0  0  0  0  0  0  0
    3.7627   -2.9975    0.0129 C   0  0  0  0  0  0  0  0  0  0  0  0
    5.0860   -2.5990   -0.1762 C   0  0  0  0  0  0  0  0  0  0  0  0
    5.8750    2.9549    0.2076 C   0  0  0  0  0  0  0  0  0  0  0  0
    6.7429    0.7977   -0.4542 C   0  0  0  0  0  0  0  0  0  0  0  0
    3.4415   -4.3544    0.0491 C   0  0  0  0  0  0  0  0  0  0  0  0
    6.0879   -3.5573   -0.3293 C   0  0  0  0  0  0  0  0  0  0  0  0
    5.8115    1.5554    0.2410 C   0  0  0  0  0  0  0  0  0  0  0  0
    6.9048    3.5550   -0.5467 C   0  0  0  0  0  0  0  0  0  0  0  0
    6.6980   -0.6880   -0.4352 C   0  0  0  0  0  0  0  0  0  0  0  0
    4.4434   -5.3127   -0.1038 C   0  0  0  0  0  0  0  0  0  0  0  0
    5.7666   -4.9142   -0.2930 C   0  0  0  0  0  0  0  0  0  0  0  0
    7.7135    1.4742   -1.1645 C   0  0  0  0  0  0  0  0  0  0  0  0
    4.9469    3.7505    0.9006 C   0  0  0  0  0  0  0  0  0  0  0  0
    6.9677    4.9453   -0.5793 C   0  0  0  0  0  0  0  0  0  0  0  0
    5.0332    5.1388    0.8503 C   0  0  0  0  0  0  0  0  0  0  0  0
    6.0452    5.7366    0.1096 C   0  0  0  0  0  0  0  0  0  0  0  0
   -7.0706    2.2590   -0.2548 H   0  0  0  0  0  0  0  0  0  0  0  0
   -6.6783    1.8952    1.4231 H   0  0  0  0  0  0  0  0  0  0  0  0
   -7.7780   -1.2253   -1.1854 H   0  0  0  0  0  0  0  0  0  0  0  0
   -7.4404    0.3712   -1.8891 H   0  0  0  0  0  0  0  0  0  0  0  0
   -8.9610    2.8458    1.1248 H   0  0  0  0  0  0  0  0  0  0  0  0
   -8.9177    1.2998    1.9910 H   0  0  0  0  0  0  0  0  0  0  0  0
   -5.5232   -1.0200   -0.5519 H   0  0  0  0  0  0  0  0  0  0  0  0
   -5.2103    0.7042   -0.6784 H   0  0  0  0  0  0  0  0  0  0  0  0
   -5.3084   -0.9765    1.9079 H   0  0  0  0  0  0  0  0  0  0  0  0
   -5.0056    0.7436    1.9062 H   0  0  0  0  0  0  0  0  0  0  0  0
   -9.9221   -1.0693   -2.5282 H   0  0  0  0  0  0  0  0  0  0  0  0
  -11.4462    2.2351    0.8471 H   0  0  0  0  0  0  0  0  0  0  0  0
  -12.3058   -0.4393   -2.3951 H   0  0  0  0  0  0  0  0  0  0  0  0
  -13.0676    1.2095   -0.7081 H   0  0  0  0  0  0  0  0  0  0  0  0
   -3.5976   -2.5507    1.0890 H   0  0  0  0  0  0  0  0  0  0  0  0
   -2.9265    1.7067    1.0200 H   0  0  0  0  0  0  0  0  0  0  0  0
   -1.2626   -2.9524    0.7466 H   0  0  0  0  0  0  0  0  0  0  0  0
   -0.5242    1.3243    0.6683 H   0  0  0  0  0  0  0  0  0  0  0  0
    1.2355   -0.2099    0.4012 H   0  0  0  0  0  0  0  0  0  0  0  0
    2.9982   -1.0686    0.1422 H   0  0  0  0  0  0  0  0  0  0  0  0
    4.6572   -0.6006   -0.1375 H   0  0  0  0  0  0  0  0  0  0  0  0
    2.4477   -4.7520    0.1902 H   0  0  0  0  0  0  0  0  0  0  0  0
    5.0409    1.0887    0.8498 H   0  0  0  0  0  0  0  0  0  0  0  0
    7.1358   -3.3391   -0.4732 H   0  0  0  0  0  0  0  0  0  0  0  0
    4.1949   -6.3697   -0.0755 H   0  0  0  0  0  0  0  0  0  0  0  0
    6.5459   -5.6618   -0.4103 H   0  0  0  0  0  0  0  0  0  0  0  0
    8.4733    0.9503   -1.7364 H   0  0  0  0  0  0  0  0  0  0  0  0
    4.1505    3.2932    1.4835 H   0  0  0  0  0  0  0  0  0  0  0  0
    7.7509    5.4380   -1.1526 H   0  0  0  0  0  0  0  0  0  0  0  0
    4.3142    5.7504    1.3869 H   0  0  0  0  0  0  0  0  0  0  0  0
    6.1202    6.8193    0.0650 H   0  0  0  0  0  0  0  0  0  0  0  0
  1 25  2  0  0  0  0
  2 34  2  0  0  0  0
  3  8  1  0  0  0  0
  3  9  1  0  0  0  0
  3 13  1  0  0  0  0
  4 24  1  0  0  0  0
  4 25  1  0  0  0  0
  4 60  1  0  0  0  0
  5 25  1  0  0  0  0
  5 26  1  0  0  0  0
  5 61  1  0  0  0  0
  6 27  1  0  0  0  0
  6 34  1  0  0  0  0
  6 62  1  0  0  0  0
  7 33  1  0  0  0  0
  7 37  2  0  0  0  0
  8 10  1  0  0  0  0
  8 42  1  0  0  0  0
  8 43  1  0  0  0  0
  9 11  1  0  0  0  0
  9 44  1  0  0  0  0
  9 45  1  0  0  0  0
 10 12  1  0  0  0  0
 10 46  1  0  0  0  0
 10 47  1  0  0  0  0
 11 12  1  0  0  0  0
 11 15  2  0  0  0  0
 12 16  2  0  0  0  0
 13 14  1  0  0  0  0
 13 48  1  0  0  0  0
 13 49  1  0  0  0  0
 14 17  1  0  0  0  0
 14 50  1  0  0  0  0
 14 51  1  0  0  0  0
 15 18  1  0  0  0  0
 15 52  1  0  0  0  0
 16 19  1  0  0  0  0
 16 53  1  0  0  0  0
 17 20  2  0  0  0  0
 17 21  1  0  0  0  0
 18 19  2  0  0  0  0
 18 54  1  0  0  0  0
 19 55  1  0  0  0  0
 20 22  1  0  0  0  0
 20 56  1  0  0  0  0
 21 23  2  0  0  0  0
 21 57  1  0  0  0  0
 22 24  2  0  0  0  0
 22 58  1  0  0  0  0
 23 24  1  0  0  0  0
 23 59  1  0  0  0  0
 26 27  1  0  0  0  0
 26 30  2  0  0  0  0
 27 31  2  0  0  0  0
 28 32  1  0  0  0  0
 28 33  1  0  0  0  0
 28 38  2  0  0  0  0
 29 32  2  0  0  0  0
 29 34  1  0  0  0  0
 29 37  1  0  0  0  0
 30 35  1  0  0  0  0
 30 63  1  0  0  0  0
 31 36  1  0  0  0  0
 31 65  1  0  0  0  0
 32 64  1  0  0  0  0
 33 39  2  0  0  0  0
 35 36  2  0  0  0  0
 35 66  1  0  0  0  0
 36 67  1  0  0  0  0
 37 68  1  0  0  0  0
 38 40  1  0  0  0  0
 38 69  1  0  0  0  0
 39 41  1  0  0  0  0
 39 70  1  0  0  0  0
 40 41  2  0  0  0  0
 40 71  1  0  0  0  0
 41 72  1  0  0  0  0
M  END
> <PUBCHEM_COMPOUND_CID>
44438016

> <PUBCHEM_CONFORMER_RMSD>
1.4

> <PUBCHEM_CONFORMER_DIVERSEORDER>
1
60
45
26
75
99
74
76
14
110
90
71
85
32
107
78
72
4
24
93
102
48
44
62
109
47
46
59
29
103
111
80
2
27
13
64
98
112
19
20
41
43
79
68
3
36
95
39
88
9
15
82
101
86
53
38
104
94
63
30
49
106
100
51
55
89
83
97
40
42
67
54
105
81
23
73
17
5
61
84
66
108
35
58
57
25
96
10
52
77
92
31
8
21
69
70
22
28
65
18
91
16
37
87
11
50
56
33
12
34
7
6

> <PUBCHEM_MMFF94_PARTIAL_CHARGES>
61
1 -0.57
10 0.14
11 -0.14
12 -0.14
13 0.27
14 0.14
15 -0.15
16 -0.15
17 -0.14
18 -0.15
19 -0.15
2 -0.57
20 -0.15
21 -0.15
22 -0.15
23 -0.15
24 0.12
25 0.69
26 0.12
27 0.12
29 0.09
3 -0.81
30 -0.15
31 -0.15
32 -0.15
33 0.31
34 0.54
35 -0.15
36 -0.15
37 0.16
38 -0.15
39 -0.15
4 -0.55
40 -0.15
41 -0.15
5 -0.55
52 0.15
53 0.15
54 0.15
55 0.15
56 0.15
57 0.15
58 0.15
59 0.15
6 -0.55
60 0.37
61 0.37
62 0.37
63 0.15
64 0.15
65 0.15
66 0.15
67 0.15
68 0.15
69 0.15
7 -0.62
70 0.15
71 0.15
72 0.15
8 0.27
9 0.41

> <PUBCHEM_EFFECTIVE_ROTOR_COUNT>
10.8

> <PUBCHEM_PHARMACOPHORE_FEATURES>
13
1 1 acceptor
1 2 acceptor
1 3 cation
1 4 donor
1 5 donor
1 6 donor
1 7 acceptor
6 11 12 15 16 18 19 rings
6 17 20 21 22 23 24 rings
6 26 27 30 31 35 36 rings
6 28 33 38 39 40 41 rings
6 3 8 9 10 11 12 rings
6 7 28 29 32 33 37 rings

> <PUBCHEM_HEAVY_ATOM_COUNT>
41

> <PUBCHEM_ATOM_DEF_STEREO_COUNT>
0

> <PUBCHEM_ATOM_UDEF_STEREO_COUNT>
0

> <PUBCHEM_BOND_DEF_STEREO_COUNT>
0

> <PUBCHEM_BOND_UDEF_STEREO_COUNT>
0

> <PUBCHEM_ISOTOPIC_ATOM_COUNT>
0

> <PUBCHEM_COMPONENT_COUNT>
1

> <PUBCHEM_CACTVS_TAUTO_COUNT>
6

> <PUBCHEM_CONFORMER_ID>
02A6120000000001

> <PUBCHEM_MMFF94_ENERGY>
134.8706

> <PUBCHEM_FEATURE_SELFOVERLAP>
66.079

> <PUBCHEM_SHAPE_FINGERPRINT>
10168742 298 15410898461856771829
11135609 127 18411136939901434890
11146346 40 18202561799846221416
11211813 74 18335138691736075073
11297010 23 18343591746332541902
11828042 206 18263639581993948221
12089408 11 18129660795703388699
12144603 126 18202282481897445999
12522641 24 18411982447405620180
12522641 33 18335701671770169693
12728209 37 14779275193712440565
12758862 11 17967820414872130555
131240 100 18187649124962521291
14142895 15 18411982464596200911
15320295 198 18335995263313774648
15400415 2 17980207701828811904
15538507 19 9475435073434003422
15890870 6 18338243773689056284
20609170 84 16878206641866665924
21026386 74 18412542111045558497
21133410 127 17616262820574464388
21362267 2 18260255344874318629
21772523 7 17968921064634767581
23522609 53 17630912446206599683
23528521 120 18187358840981058063
23729417 116 16829544138211831550
24204213 62 18342740719210235031
306946 40 17458343035892401439
3146122 72 18407757049657447681
45270241 37 18411702071287046231
5047190 47 18341895233728784856
57366028 249 18408603652753774957

> <PUBCHEM_SHAPE_MULTIPOLES>
807.12
43.11
7.46
1.18
124.92
1.74
0.18
28.18
17.55
-31.19
-0.19
1.96
0.28
-0.48

> <PUBCHEM_SHAPE_SELFOVERLAP>
1778.158

> <PUBCHEM_SHAPE_VOLUME>
429.8

> <PUBCHEM_COORDINATE_TYPE>
2
5
10

$$$$