11957988
  -OEChem-03242010103D

 81 85  0     1  0  0  0  0  0999 V2000
    5.3587   -2.1342   -1.2413 O   0  0  0  0  0  0  0  0  0  0  0  0
    5.8238   -2.0930    1.4965 O   0  0  0  0  0  0  0  0  0  0  0  0
   -4.6348    1.9808   -1.4619 O   0  0  0  0  0  0  0  0  0  0  0  0
   -3.9780   -3.6609    0.6401 O   0  0  0  0  0  0  0  0  0  0  0  0
    0.7808   -1.3252   -1.9510 O   0  0  0  0  0  0  0  0  0  0  0  0
    2.1816   -3.3427   -0.6501 O   0  0  0  0  0  0  0  0  0  0  0  0
    2.6745    3.2526   -0.1343 N   0  0  2  0  0  0  0  0  0  0  0  0
   -3.3637    1.5801    0.4751 N   0  0  0  0  0  0  0  0  0  0  0  0
   -3.8285   -1.3793    0.0945 N   0  0  0  0  0  0  0  0  0  0  0  0
    3.5429    3.6134    0.9932 C   0  0  0  0  0  0  0  0  0  0  0  0
    3.3862    2.3499   -1.0565 C   0  0  0  0  0  0  0  0  0  0  0  0
    3.8374    2.3722    1.8416 C   0  0  0  0  0  0  0  0  0  0  0  0
    4.0073    1.1575   -0.3657 C   0  0  0  0  0  0  0  0  0  0  0  0
    4.2644    1.1868    1.0158 C   0  0  0  0  0  0  0  0  0  0  0  0
    2.2196    4.4486   -0.8425 C   0  0  0  0  0  0  0  0  0  0  0  0
    1.0606    5.1162   -0.1017 C   0  0  0  0  0  0  0  0  0  0  0  0
    4.3910    0.0375   -1.1157 C   0  0  0  0  0  0  0  0  0  0  0  0
    4.8667    0.0825    1.6324 C   0  0  0  0  0  0  0  0  0  0  0  0
    4.9992   -1.0532   -0.4943 C   0  0  0  0  0  0  0  0  0  0  0  0
    5.2346   -1.0315    0.8786 C   0  0  0  0  0  0  0  0  0  0  0  0
   -0.1117    4.1799    0.0504 C   0  0  0  0  0  0  0  0  0  0  0  0
   -1.1019    4.1355   -0.9311 C   0  0  0  0  0  0  0  0  0  0  0  0
   -0.2052    3.3574    1.1731 C   0  0  0  0  0  0  0  0  0  0  0  0
   -2.1855    3.2686   -0.7897 C   0  0  0  0  0  0  0  0  0  0  0  0
   -1.2889    2.4907    1.3146 C   0  0  0  0  0  0  0  0  0  0  0  0
   -2.2791    2.4463    0.3331 C   0  0  0  0  0  0  0  0  0  0  0  0
    5.0826   -2.0766   -2.6394 C   0  0  0  0  0  0  0  0  0  0  0  0
    6.0293   -1.9912    2.9043 C   0  0  0  0  0  0  0  0  0  0  0  0
   -4.4442    1.4004   -0.3986 C   0  0  0  0  0  0  0  0  0  0  0  0
   -5.4658    0.4161    0.0456 C   0  0  0  0  0  0  0  0  0  0  0  0
   -5.1359   -0.9196    0.2753 C   0  0  0  0  0  0  0  0  0  0  0  0
   -6.7775    0.8526    0.2318 C   0  0  0  0  0  0  0  0  0  0  0  0
   -6.1178   -1.8190    0.6909 C   0  0  0  0  0  0  0  0  0  0  0  0
   -7.7594   -0.0467    0.6475 C   0  0  0  0  0  0  0  0  0  0  0  0
   -7.4295   -1.3825    0.8768 C   0  0  0  0  0  0  0  0  0  0  0  0
   -3.3396   -2.6777    0.2802 C   0  0  0  0  0  0  0  0  0  0  0  0
   -1.8840   -2.8499    0.0330 C   0  0  0  0  0  0  0  0  0  0  0  0
   -1.2212   -1.9996   -0.8519 C   0  0  0  0  0  0  0  0  0  0  0  0
   -1.1812   -3.8629    0.6855 C   0  0  0  0  0  0  0  0  0  0  0  0
    0.1446   -2.1619   -1.0844 C   0  0  0  0  0  0  0  0  0  0  0  0
    0.8475   -3.1748   -0.4321 C   0  0  0  0  0  0  0  0  0  0  0  0
    0.1846   -4.0254    0.4527 C   0  0  0  0  0  0  0  0  0  0  0  0
   -0.0099   -0.3163   -2.5762 C   0  0  0  0  0  0  0  0  0  0  0  0
    2.8256   -4.4016    0.0559 C   0  0  0  0  0  0  0  0  0  0  0  0
    4.4832    4.0534    0.6335 H   0  0  0  0  0  0  0  0  0  0  0  0
    3.0745    4.3553    1.6487 H   0  0  0  0  0  0  0  0  0  0  0  0
    2.6696    1.9807   -1.8010 H   0  0  0  0  0  0  0  0  0  0  0  0
    4.1839    2.8869   -1.5871 H   0  0  0  0  0  0  0  0  0  0  0  0
    4.6203    2.6205    2.5682 H   0  0  0  0  0  0  0  0  0  0  0  0
    2.9372    2.0898    2.4023 H   0  0  0  0  0  0  0  0  0  0  0  0
    1.8583    4.1754   -1.8436 H   0  0  0  0  0  0  0  0  0  0  0  0
    3.0371    5.1651   -0.9945 H   0  0  0  0  0  0  0  0  0  0  0  0
    1.3660    5.4948    0.8807 H   0  0  0  0  0  0  0  0  0  0  0  0
    0.7424    6.0045   -0.6632 H   0  0  0  0  0  0  0  0  0  0  0  0
    4.1874    0.0797   -2.1807 H   0  0  0  0  0  0  0  0  0  0  0  0
    5.0194    0.1549    2.7042 H   0  0  0  0  0  0  0  0  0  0  0  0
   -1.0379    4.7701   -1.8111 H   0  0  0  0  0  0  0  0  0  0  0  0
    0.5521    3.3869    1.9515 H   0  0  0  0  0  0  0  0  0  0  0  0
   -2.9090    3.2916   -1.5922 H   0  0  0  0  0  0  0  0  0  0  0  0
   -1.3498    1.8565    2.1954 H   0  0  0  0  0  0  0  0  0  0  0  0
    5.4306   -3.0191   -3.0748 H   0  0  0  0  0  0  0  0  0  0  0  0
    4.0068   -2.0149   -2.8365 H   0  0  0  0  0  0  0  0  0  0  0  0
    5.6442   -1.2740   -3.1293 H   0  0  0  0  0  0  0  0  0  0  0  0
    6.7176   -1.1767    3.1544 H   0  0  0  0  0  0  0  0  0  0  0  0
    5.0803   -1.9183    3.4465 H   0  0  0  0  0  0  0  0  0  0  0  0
    6.5081   -2.9214    3.2275 H   0  0  0  0  0  0  0  0  0  0  0  0
   -3.3647    1.0231    1.3272 H   0  0  0  0  0  0  0  0  0  0  0  0
   -7.0480    1.8911    0.0587 H   0  0  0  0  0  0  0  0  0  0  0  0
   -5.9513   -2.8671    0.8912 H   0  0  0  0  0  0  0  0  0  0  0  0
   -3.1640   -0.6552   -0.1567 H   0  0  0  0  0  0  0  0  0  0  0  0
   -8.7807    0.2930    0.7930 H   0  0  0  0  0  0  0  0  0  0  0  0
   -8.1953   -2.0815    1.2006 H   0  0  0  0  0  0  0  0  0  0  0  0
   -1.7988   -1.2569   -1.3864 H   0  0  0  0  0  0  0  0  0  0  0  0
   -1.6783   -4.5323    1.3826 H   0  0  0  0  0  0  0  0  0  0  0  0
    0.6661   -4.8312    0.9958 H   0  0  0  0  0  0  0  0  0  0  0  0
   -0.7755   -0.7489   -3.2293 H   0  0  0  0  0  0  0  0  0  0  0  0
   -0.4275    0.3834   -1.8439 H   0  0  0  0  0  0  0  0  0  0  0  0
    0.6612    0.2645   -3.2178 H   0  0  0  0  0  0  0  0  0  0  0  0
    3.8788   -4.3972   -0.2427 H   0  0  0  0  0  0  0  0  0  0  0  0
    2.4216   -5.3798   -0.2261 H   0  0  0  0  0  0  0  0  0  0  0  0
    2.8016   -4.2362    1.1384 H   0  0  0  0  0  0  0  0  0  0  0  0
  1 19  1  0  0  0  0
  1 27  1  0  0  0  0
  2 20  1  0  0  0  0
  2 28  1  0  0  0  0
  3 29  2  0  0  0  0
  4 36  2  0  0  0  0
  5 40  1  0  0  0  0
  5 43  1  0  0  0  0
  6 41  1  0  0  0  0
  6 44  1  0  0  0  0
  7 10  1  0  0  0  0
  7 11  1  0  0  0  0
  7 15  1  0  0  0  0
  8 26  1  0  0  0  0
  8 29  1  0  0  0  0
  8 67  1  0  0  0  0
  9 31  1  0  0  0  0
  9 36  1  0  0  0  0
  9 70  1  0  0  0  0
 10 12  1  0  0  0  0
 10 45  1  0  0  0  0
 10 46  1  0  0  0  0
 11 13  1  0  0  0  0
 11 47  1  0  0  0  0
 11 48  1  0  0  0  0
 12 14  1  0  0  0  0
 12 49  1  0  0  0  0
 12 50  1  0  0  0  0
 13 14  1  0  0  0  0
 13 17  2  0  0  0  0
 14 18  2  0  0  0  0
 15 16  1  0  0  0  0
 15 51  1  0  0  0  0
 15 52  1  0  0  0  0
 16 21  1  0  0  0  0
 16 53  1  0  0  0  0
 16 54  1  0  0  0  0
 17 19  1  0  0  0  0
 17 55  1  0  0  0  0
 18 20  1  0  0  0  0
 18 56  1  0  0  0  0
 19 20  2  0  0  0  0
 21 22  2  0  0  0  0
 21 23  1  0  0  0  0
 22 24  1  0  0  0  0
 22 57  1  0  0  0  0
 23 25  2  0  0  0  0
 23 58  1  0  0  0  0
 24 26  2  0  0  0  0
 24 59  1  0  0  0  0
 25 26  1  0  0  0  0
 25 60  1  0  0  0  0
 27 61  1  0  0  0  0
 27 62  1  0  0  0  0
 27 63  1  0  0  0  0
 28 64  1  0  0  0  0
 28 65  1  0  0  0  0
 28 66  1  0  0  0  0
 29 30  1  0  0  0  0
 30 31  1  0  0  0  0
 30 32  2  0  0  0  0
 31 33  2  0  0  0  0
 32 34  1  0  0  0  0
 32 68  1  0  0  0  0
 33 35  1  0  0  0  0
 33 69  1  0  0  0  0
 34 35  2  0  0  0  0
 34 71  1  0  0  0  0
 35 72  1  0  0  0  0
 36 37  1  0  0  0  0
 37 38  2  0  0  0  0
 37 39  1  0  0  0  0
 38 40  1  0  0  0  0
 38 73  1  0  0  0  0
 39 42  2  0  0  0  0
 39 74  1  0  0  0  0
 40 41  2  0  0  0  0
 41 42  1  0  0  0  0
 42 75  1  0  0  0  0
 43 76  1  0  0  0  0
 43 77  1  0  0  0  0
 43 78  1  0  0  0  0
 44 79  1  0  0  0  0
 44 80  1  0  0  0  0
 44 81  1  0  0  0  0
M  END
> <PUBCHEM_COMPOUND_CID>
11957988

> <PUBCHEM_CONFORMER_RMSD>
1.4

> <PUBCHEM_CONFORMER_DIVERSEORDER>
1
33
45
18
8
46
52
64
48
15
47
66
68
74
41
9
69
73
58
14
38
32
27
49
59
37
2
72
29
22
50
56
16
55
23
43
57
12
20
34
24
7
63
60
44
53
70
35
21
40
71
62
39
4
65
51
19
25
28
36
42
26
61
6
67
3
10
13
54
30
17
5
31
11

> <PUBCHEM_MMFF94_PARTIAL_CHARGES>
59
1 -0.36
10 0.27
11 0.41
12 0.14
13 -0.14
14 -0.14
15 0.27
16 0.14
17 -0.15
18 -0.15
19 0.08
2 -0.36
20 0.08
21 -0.14
22 -0.15
23 -0.15
24 -0.15
25 -0.15
26 0.12
27 0.28
28 0.28
29 0.54
3 -0.57
30 0.09
31 0.12
32 -0.15
33 -0.15
34 -0.15
35 -0.15
36 0.54
37 0.09
38 -0.15
39 -0.15
4 -0.57
40 0.08
41 0.08
42 -0.15
43 0.28
44 0.28
5 -0.36
55 0.15
56 0.15
57 0.15
58 0.15
59 0.15
6 -0.36
60 0.15
67 0.37
68 0.15
69 0.15
7 -0.81
70 0.37
71 0.15
72 0.15
73 0.15
74 0.15
75 0.15
8 -0.55
9 -0.55

> <PUBCHEM_EFFECTIVE_ROTOR_COUNT>
13.8

> <PUBCHEM_PHARMACOPHORE_FEATURES>
14
1 1 acceptor
1 2 acceptor
1 3 acceptor
1 4 acceptor
1 5 acceptor
1 6 acceptor
1 7 cation
1 8 donor
1 9 donor
6 13 14 17 18 19 20 rings
6 21 22 23 24 25 26 rings
6 30 31 32 33 34 35 rings
6 37 38 39 40 41 42 rings
6 7 10 11 12 13 14 rings

> <PUBCHEM_HEAVY_ATOM_COUNT>
44

> <PUBCHEM_ATOM_DEF_STEREO_COUNT>
0

> <PUBCHEM_ATOM_UDEF_STEREO_COUNT>
0

> <PUBCHEM_BOND_DEF_STEREO_COUNT>
0

> <PUBCHEM_BOND_UDEF_STEREO_COUNT>
0

> <PUBCHEM_ISOTOPIC_ATOM_COUNT>
0

> <PUBCHEM_COMPONENT_COUNT>
1

> <PUBCHEM_CACTVS_TAUTO_COUNT>
7

> <PUBCHEM_CONFORMER_ID>
00B676E400000001

> <PUBCHEM_MMFF94_ENERGY>
172.8315

> <PUBCHEM_FEATURE_SELFOVERLAP>
71.082

> <PUBCHEM_SHAPE_FINGERPRINT>
10581848 197 17626629995073483320
10864689 126 18267589001215136069
11093857 5 17909547256172344664
12925494 130 18338797948133066835
13165054 342 17832718137572276396
13383661 66 17486227617198724934
13561361 72 18411697673435070512
1361 2 18411141367733253089
13751561 76 17988095477443703660
13947930 73 18189876713085631744
14004853 49 17406546391206613280
14725015 67 18411135797054863008
15001296 14 18189614019868505257
15219648 60 18270421454658251798
15264996 151 18188772721674577907
15264996 44 18129961072865195788
15274700 256 18411420567838572014
15320291 9 18123184872939709482
15320467 1 18410295796130729005
15968369 153 18130216060863136542
16112460 7 18271257117918513329
20764821 26 18123216557082373976
21792965 270 18336845168854493603
373842 8 18411139125802067587
392239 28 18412832369730340895
44426701 206 17561363967599235452
5109719 28 18195825170029531051
5776283 40 18267038300920016596
6176135 31 18267859678016778448
636783 150 17908431251960414254
636783 77 18265877225073056800

> <PUBCHEM_SHAPE_MULTIPOLES>
855.34
16.26
7.45
1.84
15.54
3.05
0.17
-6.37
-5.16
-3.26
0.02
-3.04
-0.52
1.1

> <PUBCHEM_SHAPE_SELFOVERLAP>
1853.202

> <PUBCHEM_SHAPE_VOLUME>
466.7

> <PUBCHEM_COORDINATE_TYPE>
2
5
10

$$$$