44285907
  -OEChem-03242010103D

 69 70  0     1  0  0  0  0  0999 V2000
   -0.5744    1.5863    0.6756 O   0  0  0  0  0  0  0  0  0  0  0  0
    2.7745    0.3551    3.4746 O   0  0  0  0  0  0  0  0  0  0  0  0
    1.7731    1.5631   -1.2968 O   0  0  0  0  0  0  0  0  0  0  0  0
    0.2018    3.3390    1.9611 O   0  0  0  0  0  0  0  0  0  0  0  0
    0.1998    1.2342   -2.9507 O   0  0  0  0  0  0  0  0  0  0  0  0
    4.8286    0.5206   -1.4375 O   0  0  0  0  0  0  0  0  0  0  0  0
    3.6070   -0.0734    0.4525 N   0  0  0  0  0  0  0  0  0  0  0  0
   -1.1774    2.4747   -0.2965 C   0  0  2  0  0  0  0  0  0  0  0  0
    2.3042   -0.2568    1.1606 C   0  0  2  0  0  0  0  0  0  0  0  0
   -2.3221    1.6971   -0.9414 C   0  0  0  0  0  0  0  0  0  0  0  0
    2.1181    0.7943    2.2855 C   0  0  1  0  0  0  0  0  0  0  0  0
   -0.1077    2.9858   -1.2856 C   0  0  2  0  0  0  0  0  0  0  0  0
   -3.3086    1.1938    0.1102 C   0  0  0  0  0  0  0  0  0  0  0  0
    2.1271   -1.7074    1.6244 C   0  0  0  0  0  0  0  0  0  0  0  0
   -4.4842    0.4155   -0.4877 C   0  0  0  0  0  0  0  0  0  0  0  0
    0.6459    1.0603    2.6188 C   0  0  0  0  0  0  0  0  0  0  0  0
   -5.4363   -0.1540    0.5664 C   0  0  0  0  0  0  0  0  0  0  0  0
    0.0702    2.1426    1.7380 C   0  0  0  0  0  0  0  0  0  0  0  0
   -0.6687    3.9449   -2.3330 C   0  0  0  0  0  0  0  0  0  0  0  0
    0.6161    1.8350   -1.9689 C   0  0  0  0  0  0  0  0  0  0  0  0
   -6.5767   -0.9401   -0.0846 C   0  0  0  0  0  0  0  0  0  0  0  0
    1.7590   -2.6080    0.4802 C   0  0  0  0  0  0  0  0  0  0  0  0
    3.7417    0.2966   -0.8938 C   0  0  0  0  0  0  0  0  0  0  0  0
    4.8313   -0.2085    1.2436 C   0  0  0  0  0  0  0  0  0  0  0  0
    2.4846    0.4054   -1.7316 C   0  0  0  0  0  0  0  0  0  0  0  0
   -7.5082   -1.5424    0.9671 C   0  0  0  0  0  0  0  0  0  0  0  0
    0.4174   -2.8156    0.1601 C   0  0  0  0  0  0  0  0  0  0  0  0
    2.7585   -3.2366   -0.2622 C   0  0  0  0  0  0  0  0  0  0  0  0
   -8.6612   -2.2960    0.3238 C   0  0  0  0  0  0  0  0  0  0  0  0
    0.0753   -3.6520   -0.9025 C   0  0  0  0  0  0  0  0  0  0  0  0
    2.4166   -4.0729   -1.3248 C   0  0  0  0  0  0  0  0  0  0  0  0
    1.0748   -4.2806   -1.6450 C   0  0  0  0  0  0  0  0  0  0  0  0
   -1.6095    3.3349    0.2328 H   0  0  0  0  0  0  0  0  0  0  0  0
    1.5104   -0.0530    0.4422 H   0  0  0  0  0  0  0  0  0  0  0  0
   -2.8539    2.3241   -1.6649 H   0  0  0  0  0  0  0  0  0  0  0  0
   -1.9342    0.8247   -1.4796 H   0  0  0  0  0  0  0  0  0  0  0  0
    2.5972    1.7341    1.9823 H   0  0  0  0  0  0  0  0  0  0  0  0
    0.6495    3.5460   -0.7205 H   0  0  0  0  0  0  0  0  0  0  0  0
   -2.7957    0.5390    0.8250 H   0  0  0  0  0  0  0  0  0  0  0  0
   -3.6988    2.0442    0.6831 H   0  0  0  0  0  0  0  0  0  0  0  0
    1.3215   -1.7676    2.3678 H   0  0  0  0  0  0  0  0  0  0  0  0
    3.0067   -2.1045    2.1410 H   0  0  0  0  0  0  0  0  0  0  0  0
   -5.0427    1.0737   -1.1647 H   0  0  0  0  0  0  0  0  0  0  0  0
   -4.0924   -0.4076   -1.0984 H   0  0  0  0  0  0  0  0  0  0  0  0
    0.5312    1.4010    3.6556 H   0  0  0  0  0  0  0  0  0  0  0  0
    0.0318    0.1557    2.5482 H   0  0  0  0  0  0  0  0  0  0  0  0
   -5.8472    0.6641    1.1701 H   0  0  0  0  0  0  0  0  0  0  0  0
   -4.8783   -0.8096    1.2459 H   0  0  0  0  0  0  0  0  0  0  0  0
   -1.3652    3.4491   -3.0168 H   0  0  0  0  0  0  0  0  0  0  0  0
    0.1411    4.3568   -2.9458 H   0  0  0  0  0  0  0  0  0  0  0  0
   -1.1899    4.7813   -1.8564 H   0  0  0  0  0  0  0  0  0  0  0  0
   -6.1632   -1.7418   -0.7086 H   0  0  0  0  0  0  0  0  0  0  0  0
   -7.1470   -0.2769   -0.7464 H   0  0  0  0  0  0  0  0  0  0  0  0
    4.9053    0.6391    1.9299 H   0  0  0  0  0  0  0  0  0  0  0  0
    5.7219   -0.2048    0.6091 H   0  0  0  0  0  0  0  0  0  0  0  0
    4.8284   -1.1429    1.8061 H   0  0  0  0  0  0  0  0  0  0  0  0
    2.7762    0.5279   -2.7813 H   0  0  0  0  0  0  0  0  0  0  0  0
    1.8739   -0.4967   -1.6408 H   0  0  0  0  0  0  0  0  0  0  0  0
    2.7164    1.0747    4.1259 H   0  0  0  0  0  0  0  0  0  0  0  0
   -7.9113   -0.7481    1.6062 H   0  0  0  0  0  0  0  0  0  0  0  0
   -6.9466   -2.2261    1.6143 H   0  0  0  0  0  0  0  0  0  0  0  0
   -0.3709   -2.3281    0.7279 H   0  0  0  0  0  0  0  0  0  0  0  0
    3.8076   -3.0859   -0.0224 H   0  0  0  0  0  0  0  0  0  0  0  0
   -8.2937   -3.1177   -0.2992 H   0  0  0  0  0  0  0  0  0  0  0  0
   -9.2630   -1.6312   -0.3040 H   0  0  0  0  0  0  0  0  0  0  0  0
   -9.3140   -2.7191    1.0937 H   0  0  0  0  0  0  0  0  0  0  0  0
   -0.9693   -3.8124   -1.1527 H   0  0  0  0  0  0  0  0  0  0  0  0
    3.1948   -4.5625   -1.9029 H   0  0  0  0  0  0  0  0  0  0  0  0
    0.8085   -4.9314   -2.4726 H   0  0  0  0  0  0  0  0  0  0  0  0
  1  8  1  0  0  0  0
  1 18  1  0  0  0  0
  2 11  1  0  0  0  0
  2 59  1  0  0  0  0
  3 20  1  0  0  0  0
  3 25  1  0  0  0  0
  4 18  2  0  0  0  0
  5 20  2  0  0  0  0
  6 23  2  0  0  0  0
  7  9  1  0  0  0  0
  7 23  1  0  0  0  0
  7 24  1  0  0  0  0
  8 10  1  0  0  0  0
  8 12  1  0  0  0  0
  8 33  1  0  0  0  0
  9 11  1  0  0  0  0
  9 14  1  0  0  0  0
  9 34  1  0  0  0  0
 10 13  1  0  0  0  0
 10 35  1  0  0  0  0
 10 36  1  0  0  0  0
 11 16  1  0  0  0  0
 11 37  1  0  0  0  0
 12 19  1  0  0  0  0
 12 20  1  0  0  0  0
 12 38  1  0  0  0  0
 13 15  1  0  0  0  0
 13 39  1  0  0  0  0
 13 40  1  0  0  0  0
 14 22  1  0  0  0  0
 14 41  1  0  0  0  0
 14 42  1  0  0  0  0
 15 17  1  0  0  0  0
 15 43  1  0  0  0  0
 15 44  1  0  0  0  0
 16 18  1  0  0  0  0
 16 45  1  0  0  0  0
 16 46  1  0  0  0  0
 17 21  1  0  0  0  0
 17 47  1  0  0  0  0
 17 48  1  0  0  0  0
 19 49  1  0  0  0  0
 19 50  1  0  0  0  0
 19 51  1  0  0  0  0
 21 26  1  0  0  0  0
 21 52  1  0  0  0  0
 21 53  1  0  0  0  0
 22 27  2  0  0  0  0
 22 28  1  0  0  0  0
 23 25  1  0  0  0  0
 24 54  1  0  0  0  0
 24 55  1  0  0  0  0
 24 56  1  0  0  0  0
 25 57  1  0  0  0  0
 25 58  1  0  0  0  0
 26 29  1  0  0  0  0
 26 60  1  0  0  0  0
 26 61  1  0  0  0  0
 27 30  1  0  0  0  0
 27 62  1  0  0  0  0
 28 31  2  0  0  0  0
 28 63  1  0  0  0  0
 29 64  1  0  0  0  0
 29 65  1  0  0  0  0
 29 66  1  0  0  0  0
 30 32  2  0  0  0  0
 30 67  1  0  0  0  0
 31 32  1  0  0  0  0
 31 68  1  0  0  0  0
 32 69  1  0  0  0  0
M  END
> <PUBCHEM_COMPOUND_CID>
44285907

> <PUBCHEM_CONFORMER_RMSD>
1

> <PUBCHEM_CONFORMER_DIVERSEORDER>
1
69
125
15
65
172
11
53
149
108
177
51
131
64
55
127
132
8
95
148
165
4
60
26
155
25
102
47
160
89
141
174
37
72
21
119
121
31
134
123
41
42
23
92
129
109
73
118
157
45
168
178
94
75
14
135
78
180
161
137
116
158
76
81
146
170
84
171
181
169
130
98
167
68
164
71
58
85
5
33
96
166
128
145
59
40
36
179
120
74
147
105
112
61
17
159
103
99
152
3
115
57
100
133
70
13
113
16
138
139
153
122
80
90
101
86
27
52
93
97
91
136
110
43
77
163
54
117
87
28
79
63
154
126
175
34
142
56
150
114
173
29
50
151
104
107
176
49
182
162
35
66
82
38
30
111
19
24
88
124
144
12
83
48
140
18
156
32
2
10
46
7
9
20
67
106
143
6
62
39
44
22

> <PUBCHEM_MMFF94_PARTIAL_CHARGES>
30
1 -0.43
11 0.28
12 0.06
14 0.14
16 0.06
18 0.66
2 -0.68
20 0.66
22 -0.14
23 0.57
24 0.3
25 0.34
27 -0.15
28 -0.15
3 -0.43
30 -0.15
31 -0.15
32 -0.15
4 -0.57
5 -0.57
59 0.4
6 -0.57
62 0.15
63 0.15
67 0.15
68 0.15
69 0.15
7 -0.66
8 0.28
9 0.3

> <PUBCHEM_EFFECTIVE_ROTOR_COUNT>
9.8

> <PUBCHEM_PHARMACOPHORE_FEATURES>
9
1 2 acceptor
1 2 donor
1 29 hydrophobe
1 4 acceptor
1 5 acceptor
1 6 acceptor
3 10 13 15 hydrophobe
3 17 21 26 hydrophobe
6 22 27 28 30 31 32 rings

> <PUBCHEM_HEAVY_ATOM_COUNT>
32

> <PUBCHEM_ATOM_DEF_STEREO_COUNT>
4

> <PUBCHEM_ATOM_UDEF_STEREO_COUNT>
0

> <PUBCHEM_BOND_DEF_STEREO_COUNT>
0

> <PUBCHEM_BOND_UDEF_STEREO_COUNT>
0

> <PUBCHEM_ISOTOPIC_ATOM_COUNT>
0

> <PUBCHEM_COMPONENT_COUNT>
1

> <PUBCHEM_CACTVS_TAUTO_COUNT>
8

> <PUBCHEM_CONFORMER_ID>
02A3BFD300000001

> <PUBCHEM_MMFF94_ENERGY>
61.5952

> <PUBCHEM_FEATURE_SELFOVERLAP>
45.685

> <PUBCHEM_SHAPE_FINGERPRINT>
11421498 54 18200324233617191272
12156800 1 17620180371376036968
14863182 85 18413388739461828267
14918310 93 17895749724856645789
15219462 58 17771888451049591200
15484559 13 17387710519955385765
17492 54 17677066727473609284
1979834 28 18341326782338547043
20775530 9 18052252887030617823
21315759 227 17837198277898098818
25222932 49 17846207861207264175
35225 105 18128509662198745214
3737641 26 18058449811879254603
404807 78 18190191272396176259
484985 159 14027410060347540190
57527306 92 17531528806022405620
57527452 28 18335708264634510078
86090 222 18272366507997554307

> <PUBCHEM_SHAPE_MULTIPOLES>
618.35
12.35
5.35
2.74
37.99
3.11
0.79
10.13
3.02
-1.04
-2.96
-2.59
-1.72
1.37

> <PUBCHEM_SHAPE_SELFOVERLAP>
1247.409

> <PUBCHEM_SHAPE_VOLUME>
359

> <PUBCHEM_COORDINATE_TYPE>
2
5
10

$$$$