56945529
  -OEChem-03242010093D

 49 51  0     0  0  0  0  0  0999 V2000
    6.4677    1.7950    0.6708 O   0  0  0  0  0  0  0  0  0  0  0  0
    1.5589    2.2376   -0.4071 O   0  0  0  0  0  0  0  0  0  0  0  0
    5.0481   -2.4938   -0.9185 O   0  0  0  0  0  0  0  0  0  0  0  0
    7.0724   -0.8030   -0.0763 O   0  0  0  0  0  0  0  0  0  0  0  0
   -2.8868   -3.5085    0.5196 O   0  0  0  0  0  0  0  0  0  0  0  0
    0.7646    0.0440   -0.1195 N   0  0  0  0  0  0  0  0  0  0  0  0
   -0.9603   -2.1744    0.2653 N   0  0  0  0  0  0  0  0  0  0  0  0
   -0.6240    0.2055   -0.1002 C   0  0  0  0  0  0  0  0  0  0  0  0
   -3.3886    0.5771   -0.0705 C   0  0  0  0  0  0  0  0  0  0  0  0
   -1.4723   -0.8854    0.0888 C   0  0  0  0  0  0  0  0  0  0  0  0
   -2.8546   -0.6997    0.1036 C   0  0  0  0  0  0  0  0  0  0  0  0
   -4.8224    0.7707   -0.0559 C   0  0  0  0  0  0  0  0  0  0  0  0
   -1.1580    1.4824   -0.2744 C   0  0  0  0  0  0  0  0  0  0  0  0
   -2.5403    1.6681   -0.2595 C   0  0  0  0  0  0  0  0  0  0  0  0
    3.1480    0.5493   -0.2177 C   0  0  0  0  0  0  0  0  0  0  0  0
    1.7434    1.0333   -0.2665 C   0  0  0  0  0  0  0  0  0  0  0  0
   -5.4769    1.0426    1.1455 C   0  0  0  0  0  0  0  0  0  0  0  0
   -5.5500    0.6853   -1.2427 C   0  0  0  0  0  0  0  0  0  0  0  0
    4.1653    1.4041    0.2069 C   0  0  0  0  0  0  0  0  0  0  0  0
    3.4490   -0.7594   -0.5949 C   0  0  0  0  0  0  0  0  0  0  0  0
    5.4834    0.9501    0.2543 C   0  0  0  0  0  0  0  0  0  0  0  0
    4.7671   -1.2134   -0.5476 C   0  0  0  0  0  0  0  0  0  0  0  0
    5.7843   -0.3586   -0.1229 C   0  0  0  0  0  0  0  0  0  0  0  0
   -6.8592    1.2292    1.1600 C   0  0  0  0  0  0  0  0  0  0  0  0
   -6.9322    0.8721   -1.2283 C   0  0  0  0  0  0  0  0  0  0  0  0
   -1.6698   -3.3642    0.4643 C   0  0  0  0  0  0  0  0  0  0  0  0
   -7.5868    1.1439   -0.0269 C   0  0  0  0  0  0  0  0  0  0  0  0
   -0.7446   -4.5461    0.6120 C   0  0  0  0  0  0  0  0  0  0  0  0
    6.0748    3.1159    1.0384 C   0  0  0  0  0  0  0  0  0  0  0  0
   -3.5666   -1.5004    0.2454 H   0  0  0  0  0  0  0  0  0  0  0  0
   -0.5772    2.3790   -0.4328 H   0  0  0  0  0  0  0  0  0  0  0  0
   -2.9417    2.6695   -0.3981 H   0  0  0  0  0  0  0  0  0  0  0  0
    1.0889   -0.8982    0.0535 H   0  0  0  0  0  0  0  0  0  0  0  0
    0.0486   -2.2716    0.2452 H   0  0  0  0  0  0  0  0  0  0  0  0
   -4.9248    1.1123    2.0798 H   0  0  0  0  0  0  0  0  0  0  0  0
   -5.0555    0.4740   -2.1879 H   0  0  0  0  0  0  0  0  0  0  0  0
    3.8790    2.4091    0.4969 H   0  0  0  0  0  0  0  0  0  0  0  0
    2.6870   -1.4377   -0.9681 H   0  0  0  0  0  0  0  0  0  0  0  0
   -7.3690    1.4409    2.0953 H   0  0  0  0  0  0  0  0  0  0  0  0
   -7.4990    0.8057   -2.1524 H   0  0  0  0  0  0  0  0  0  0  0  0
   -8.6631    1.2893   -0.0158 H   0  0  0  0  0  0  0  0  0  0  0  0
   -1.3283   -5.4539    0.7878 H   0  0  0  0  0  0  0  0  0  0  0  0
   -0.1575   -4.6724   -0.3020 H   0  0  0  0  0  0  0  0  0  0  0  0
   -0.0722   -4.3877    1.4598 H   0  0  0  0  0  0  0  0  0  0  0  0
    4.2235   -2.9387   -1.1789 H   0  0  0  0  0  0  0  0  0  0  0  0
    7.0884   -1.7297   -0.3723 H   0  0  0  0  0  0  0  0  0  0  0  0
    6.9825    3.6486    1.3410 H   0  0  0  0  0  0  0  0  0  0  0  0
    5.4063    3.1121    1.9061 H   0  0  0  0  0  0  0  0  0  0  0  0
    5.6548    3.6644    0.1883 H   0  0  0  0  0  0  0  0  0  0  0  0
  1 21  1  0  0  0  0
  1 29  1  0  0  0  0
  2 16  2  0  0  0  0
  3 22  1  0  0  0  0
  3 45  1  0  0  0  0
  4 23  1  0  0  0  0
  4 46  1  0  0  0  0
  5 26  2  0  0  0  0
  6  8  1  0  0  0  0
  6 16  1  0  0  0  0
  6 33  1  0  0  0  0
  7 10  1  0  0  0  0
  7 26  1  0  0  0  0
  7 34  1  0  0  0  0
  8 10  2  0  0  0  0
  8 13  1  0  0  0  0
  9 11  2  0  0  0  0
  9 12  1  0  0  0  0
  9 14  1  0  0  0  0
 10 11  1  0  0  0  0
 11 30  1  0  0  0  0
 12 17  2  0  0  0  0
 12 18  1  0  0  0  0
 13 14  2  0  0  0  0
 13 31  1  0  0  0  0
 14 32  1  0  0  0  0
 15 16  1  0  0  0  0
 15 19  1  0  0  0  0
 15 20  2  0  0  0  0
 17 24  1  0  0  0  0
 17 35  1  0  0  0  0
 18 25  2  0  0  0  0
 18 36  1  0  0  0  0
 19 21  2  0  0  0  0
 19 37  1  0  0  0  0
 20 22  1  0  0  0  0
 20 38  1  0  0  0  0
 21 23  1  0  0  0  0
 22 23  2  0  0  0  0
 24 27  2  0  0  0  0
 24 39  1  0  0  0  0
 25 27  1  0  0  0  0
 25 40  1  0  0  0  0
 26 28  1  0  0  0  0
 27 41  1  0  0  0  0
 28 42  1  0  0  0  0
 28 43  1  0  0  0  0
 28 44  1  0  0  0  0
 29 47  1  0  0  0  0
 29 48  1  0  0  0  0
 29 49  1  0  0  0  0
M  END
> <PUBCHEM_COMPOUND_CID>
56945529

> <PUBCHEM_CONFORMER_RMSD>
0.8

> <PUBCHEM_CONFORMER_DIVERSEORDER>
3
24
23
18
10
26
25
9
21
11
28
20
15
22
27
13
19
29
17
16
12
7
14
2
6
8
1
5
4

> <PUBCHEM_MMFF94_PARTIAL_CHARGES>
41
1 -0.36
10 0.12
11 -0.15
13 -0.15
14 -0.15
15 0.09
16 0.54
17 -0.15
18 -0.15
19 -0.15
2 -0.57
20 -0.15
21 0.08
22 0.08
23 0.08
24 -0.15
25 -0.15
26 0.57
27 -0.15
28 0.06
29 0.28
3 -0.53
30 0.15
31 0.15
32 0.15
33 0.37
34 0.37
35 0.15
36 0.15
37 0.15
38 0.15
39 0.15
4 -0.53
40 0.15
41 0.15
45 0.45
46 0.45
5 -0.57
6 -0.55
7 -0.55
8 0.12

> <PUBCHEM_EFFECTIVE_ROTOR_COUNT>
7

> <PUBCHEM_PHARMACOPHORE_FEATURES>
10
1 1 acceptor
1 2 acceptor
1 3 donor
1 4 donor
1 5 acceptor
1 6 donor
1 7 donor
6 12 17 18 24 25 27 rings
6 15 19 20 21 22 23 rings
6 8 9 10 11 13 14 rings

> <PUBCHEM_HEAVY_ATOM_COUNT>
29

> <PUBCHEM_ATOM_DEF_STEREO_COUNT>
0

> <PUBCHEM_ATOM_UDEF_STEREO_COUNT>
0

> <PUBCHEM_BOND_DEF_STEREO_COUNT>
0

> <PUBCHEM_BOND_UDEF_STEREO_COUNT>
0

> <PUBCHEM_ISOTOPIC_ATOM_COUNT>
0

> <PUBCHEM_COMPONENT_COUNT>
1

> <PUBCHEM_CACTVS_TAUTO_COUNT>
116

> <PUBCHEM_CONFORMER_ID>
0364EB7900000003

> <PUBCHEM_MMFF94_ENERGY>
109.7725

> <PUBCHEM_FEATURE_SELFOVERLAP>
50.755

> <PUBCHEM_SHAPE_FINGERPRINT>
10 15 17967811678387040592
102385 1 17832428974888578101
10835480 77 18270677683901702080
10906281 52 18059028253479246605
11991303 11 17676780842024947619
12107698 1 16917345918409357657
12236239 1 17846215536651782805
12616971 3 16877941698075787716
12838862 33 18263065687260491660
12977781 61 17559699350414636343
13533116 47 18060137596750964432
14028597 1 17916314840334905889
14251764 18 17917991672249459845
14866123 147 18336833108301944027
15021287 119 16950562242156814461
15064986 266 18338240487015902870
15183329 4 18342175540078024161
15849732 13 17603590716074899581
15927050 60 18409726258036138235
19141452 34 18335140925023909286
19315958 150 18411703201364201768
20157964 124 18273213093380287444
21130935 74 18272371970778969419
21236236 1 18338799018054598967
21424621 283 18343024363624769793
21521721 280 18413110541924615593
21781051 124 17824007630684680595
21859007 373 17822837693898365213
22122407 14 16773804744090808480
22224240 67 18410577280346266385
23516275 137 17202786824955948511
23559900 14 18341325708074645872
23569917 315 18410300229155170503
249057 3 18335423469948682092
283562 15 18268993090417624353
3178227 256 18262533524223628617
335352 9 18408888433884093308
3383291 50 18409169904893430019
340366 18 17968104156731821469
3633792 109 18340200800542638189
404807 14 15332123731946146767
4073 2 18338516456144772250
4408954 64 15579260226430136667
5104073 3 18339357574197928746
5385378 56 18263651663082323763
57527293 21 17750498750613631348
5758199 1 18413393112445300585
59755656 215 18188492367853214279
59755656 520 18335977627998787399
6669772 16 18339362968429796479
7226269 152 18201721752099452817

> <PUBCHEM_SHAPE_MULTIPOLES>
557.5
20.06
3.68
0.95
0.41
4.97
-0.01
-11.03
-0.53
1.28
-1.07
-0.79
-0.16
1.7

> <PUBCHEM_SHAPE_SELFOVERLAP>
1214.217

> <PUBCHEM_SHAPE_VOLUME>
302.2

> <PUBCHEM_COORDINATE_TYPE>
2
5
10

$$$$