44285882
  -OEChem-03242010103D

 76 77  0     1  0  0  0  0  0999 V2000
    0.7807    1.5693    0.2824 O   0  0  0  0  0  0  0  0  0  0  0  0
   -2.9993    1.1990   -2.1955 O   0  0  0  0  0  0  0  0  0  0  0  0
   -1.1276    0.4488    2.4048 O   0  0  0  0  0  0  0  0  0  0  0  0
   -0.3086    3.5861    0.0124 O   0  0  0  0  0  0  0  0  0  0  0  0
    0.7542   -0.3360    3.4828 O   0  0  0  0  0  0  0  0  0  0  0  0
   -4.0475   -0.9250    2.5758 O   0  0  0  0  0  0  0  0  0  0  0  0
   -4.3761    2.5693   -3.5954 O   0  0  0  0  0  0  0  0  0  0  0  0
   -3.1991   -0.5338    0.4441 N   0  0  0  0  0  0  0  0  0  0  0  0
   -2.0552   -0.2484   -0.4738 C   0  0  2  0  0  0  0  0  0  0  0  0
   -2.1403    1.1867   -1.0554 C   0  0  1  0  0  0  0  0  0  0  0  0
    1.5253    2.0454    1.4299 C   0  0  2  0  0  0  0  0  0  0  0  0
    2.8071    1.2181    1.4873 C   0  0  0  0  0  0  0  0  0  0  0  0
    0.6512    1.9688    2.7003 C   0  0  2  0  0  0  0  0  0  0  0  0
   -1.9113   -1.3458   -1.5347 C   0  0  0  0  0  0  0  0  0  0  0  0
    3.5870    1.3172    0.1780 C   0  0  0  0  0  0  0  0  0  0  0  0
   -0.7758    1.7445   -1.4750 C   0  0  0  0  0  0  0  0  0  0  0  0
    4.8898    0.5124    0.1883 C   0  0  0  0  0  0  0  0  0  0  0  0
   -0.0843    2.4300   -0.3215 C   0  0  0  0  0  0  0  0  0  0  0  0
    5.6383    0.5486   -1.1459 C   0  0  0  0  0  0  0  0  0  0  0  0
    1.3665    2.4727    3.9518 C   0  0  0  0  0  0  0  0  0  0  0  0
   -1.2862   -2.5849   -0.9607 C   0  0  0  0  0  0  0  0  0  0  0  0
    0.1267    0.5595    2.9329 C   0  0  0  0  0  0  0  0  0  0  0  0
   -3.0809   -0.7703    1.8216 C   0  0  0  0  0  0  0  0  0  0  0  0
   -4.5486   -0.4803   -0.1206 C   0  0  0  0  0  0  0  0  0  0  0  0
    6.9175   -0.2895   -1.0860 C   0  0  0  0  0  0  0  0  0  0  0  0
   -1.6889   -0.8628    2.4114 C   0  0  0  0  0  0  0  0  0  0  0  0
    7.6478   -0.2864   -2.4288 C   0  0  0  0  0  0  0  0  0  0  0  0
   -3.5455    2.4923   -2.4371 C   0  0  0  0  0  0  0  0  0  0  0  0
    0.0999   -2.7397   -0.9804 C   0  0  0  0  0  0  0  0  0  0  0  0
   -2.0914   -3.5807   -0.4081 C   0  0  0  0  0  0  0  0  0  0  0  0
    8.9364   -1.0905   -2.3639 C   0  0  0  0  0  0  0  0  0  0  0  0
    0.6808   -3.8905   -0.4474 C   0  0  0  0  0  0  0  0  0  0  0  0
   -1.5106   -4.7314    0.1249 C   0  0  0  0  0  0  0  0  0  0  0  0
   -0.1244   -4.8863    0.1053 C   0  0  0  0  0  0  0  0  0  0  0  0
   -5.5076    1.7136   -3.5037 C   0  0  0  0  0  0  0  0  0  0  0  0
   -1.1445   -0.2632    0.1247 H   0  0  0  0  0  0  0  0  0  0  0  0
   -2.5675    1.8340   -0.2759 H   0  0  0  0  0  0  0  0  0  0  0  0
    1.8069    3.0931    1.2571 H   0  0  0  0  0  0  0  0  0  0  0  0
    3.4440    1.5517    2.3134 H   0  0  0  0  0  0  0  0  0  0  0  0
    2.5709    0.1611    1.6557 H   0  0  0  0  0  0  0  0  0  0  0  0
   -0.2261    2.6145    2.5586 H   0  0  0  0  0  0  0  0  0  0  0  0
   -1.2669   -0.9956   -2.3516 H   0  0  0  0  0  0  0  0  0  0  0  0
   -2.8573   -1.6005   -2.0230 H   0  0  0  0  0  0  0  0  0  0  0  0
    2.9715    0.9572   -0.6552 H   0  0  0  0  0  0  0  0  0  0  0  0
    3.8195    2.3688   -0.0311 H   0  0  0  0  0  0  0  0  0  0  0  0
   -0.8334    2.4743   -2.2885 H   0  0  0  0  0  0  0  0  0  0  0  0
   -0.1230    0.9568   -1.8701 H   0  0  0  0  0  0  0  0  0  0  0  0
    5.5423    0.8967    0.9821 H   0  0  0  0  0  0  0  0  0  0  0  0
    4.6621   -0.5304    0.4430 H   0  0  0  0  0  0  0  0  0  0  0  0
    5.8864    1.5862   -1.3995 H   0  0  0  0  0  0  0  0  0  0  0  0
    4.9857    0.1679   -1.9409 H   0  0  0  0  0  0  0  0  0  0  0  0
    2.2049    1.8289    4.2363 H   0  0  0  0  0  0  0  0  0  0  0  0
    0.6768    2.4931    4.8032 H   0  0  0  0  0  0  0  0  0  0  0  0
    1.7468    3.4881    3.8013 H   0  0  0  0  0  0  0  0  0  0  0  0
    6.6702   -1.3210   -0.8068 H   0  0  0  0  0  0  0  0  0  0  0  0
    7.5784    0.1070   -0.3055 H   0  0  0  0  0  0  0  0  0  0  0  0
   -4.8114    0.5646   -0.3046 H   0  0  0  0  0  0  0  0  0  0  0  0
   -5.2872   -0.8953    0.5708 H   0  0  0  0  0  0  0  0  0  0  0  0
   -4.6078   -1.0465   -1.0506 H   0  0  0  0  0  0  0  0  0  0  0  0
   -1.7722   -1.2200    3.4446 H   0  0  0  0  0  0  0  0  0  0  0  0
   -1.0700   -1.5653    1.8469 H   0  0  0  0  0  0  0  0  0  0  0  0
    7.8823    0.7433   -2.7228 H   0  0  0  0  0  0  0  0  0  0  0  0
    6.9992   -0.7063   -3.2065 H   0  0  0  0  0  0  0  0  0  0  0  0
   -4.1343    2.8146   -1.5691 H   0  0  0  0  0  0  0  0  0  0  0  0
   -2.7513    3.2277   -2.5883 H   0  0  0  0  0  0  0  0  0  0  0  0
    0.7388   -1.9692   -1.4040 H   0  0  0  0  0  0  0  0  0  0  0  0
   -3.1726   -3.4744   -0.3884 H   0  0  0  0  0  0  0  0  0  0  0  0
    9.6214   -0.6747   -1.6180 H   0  0  0  0  0  0  0  0  0  0  0  0
    9.4418   -1.0757   -3.3346 H   0  0  0  0  0  0  0  0  0  0  0  0
    8.7347   -2.1340   -2.1016 H   0  0  0  0  0  0  0  0  0  0  0  0
    1.7601   -4.0103   -0.4613 H   0  0  0  0  0  0  0  0  0  0  0  0
   -2.1376   -5.5068    0.5552 H   0  0  0  0  0  0  0  0  0  0  0  0
    0.3278   -5.7820    0.5207 H   0  0  0  0  0  0  0  0  0  0  0  0
   -6.1226    1.8615   -4.3955 H   0  0  0  0  0  0  0  0  0  0  0  0
   -6.1065    1.9604   -2.6218 H   0  0  0  0  0  0  0  0  0  0  0  0
   -5.1974    0.6651   -3.4678 H   0  0  0  0  0  0  0  0  0  0  0  0
  1 11  1  0  0  0  0
  1 18  1  0  0  0  0
  2 10  1  0  0  0  0
  2 28  1  0  0  0  0
  3 22  1  0  0  0  0
  3 26  1  0  0  0  0
  4 18  2  0  0  0  0
  5 22  2  0  0  0  0
  6 23  2  0  0  0  0
  7 28  1  0  0  0  0
  7 35  1  0  0  0  0
  8  9  1  0  0  0  0
  8 23  1  0  0  0  0
  8 24  1  0  0  0  0
  9 10  1  0  0  0  0
  9 14  1  0  0  0  0
  9 36  1  0  0  0  0
 10 16  1  0  0  0  0
 10 37  1  0  0  0  0
 11 12  1  0  0  0  0
 11 13  1  0  0  0  0
 11 38  1  0  0  0  0
 12 15  1  0  0  0  0
 12 39  1  0  0  0  0
 12 40  1  0  0  0  0
 13 20  1  0  0  0  0
 13 22  1  0  0  0  0
 13 41  1  0  0  0  0
 14 21  1  0  0  0  0
 14 42  1  0  0  0  0
 14 43  1  0  0  0  0
 15 17  1  0  0  0  0
 15 44  1  0  0  0  0
 15 45  1  0  0  0  0
 16 18  1  0  0  0  0
 16 46  1  0  0  0  0
 16 47  1  0  0  0  0
 17 19  1  0  0  0  0
 17 48  1  0  0  0  0
 17 49  1  0  0  0  0
 19 25  1  0  0  0  0
 19 50  1  0  0  0  0
 19 51  1  0  0  0  0
 20 52  1  0  0  0  0
 20 53  1  0  0  0  0
 20 54  1  0  0  0  0
 21 29  2  0  0  0  0
 21 30  1  0  0  0  0
 23 26  1  0  0  0  0
 24 57  1  0  0  0  0
 24 58  1  0  0  0  0
 24 59  1  0  0  0  0
 25 27  1  0  0  0  0
 25 55  1  0  0  0  0
 25 56  1  0  0  0  0
 26 60  1  0  0  0  0
 26 61  1  0  0  0  0
 27 31  1  0  0  0  0
 27 62  1  0  0  0  0
 27 63  1  0  0  0  0
 28 64  1  0  0  0  0
 28 65  1  0  0  0  0
 29 32  1  0  0  0  0
 29 66  1  0  0  0  0
 30 33  2  0  0  0  0
 30 67  1  0  0  0  0
 31 68  1  0  0  0  0
 31 69  1  0  0  0  0
 31 70  1  0  0  0  0
 32 34  2  0  0  0  0
 32 71  1  0  0  0  0
 33 34  1  0  0  0  0
 33 72  1  0  0  0  0
 34 73  1  0  0  0  0
 35 74  1  0  0  0  0
 35 75  1  0  0  0  0
 35 76  1  0  0  0  0
M  END
> <PUBCHEM_COMPOUND_CID>
44285882

> <PUBCHEM_CONFORMER_RMSD>
1.2

> <PUBCHEM_CONFORMER_DIVERSEORDER>
1
38
28
49
23
6
40
7
9
44
30
47
11
22
17
33
52
16
27
37
42
26
20
54
45
51
31
4
25
10
14
15
19
29
24
5
2
46
39
48
34
53
43
3
36
18
55
12
21
8
32
41
13
50
35

> <PUBCHEM_MMFF94_PARTIAL_CHARGES>
32
1 -0.43
10 0.28
11 0.28
13 0.06
14 0.14
16 0.06
18 0.66
2 -0.56
21 -0.14
22 0.66
23 0.57
24 0.3
26 0.34
28 0.56
29 -0.15
3 -0.43
30 -0.15
32 -0.15
33 -0.15
34 -0.15
35 0.28
4 -0.57
5 -0.57
6 -0.57
66 0.15
67 0.15
7 -0.56
71 0.15
72 0.15
73 0.15
8 -0.66
9 0.3

> <PUBCHEM_EFFECTIVE_ROTOR_COUNT>
12.8

> <PUBCHEM_PHARMACOPHORE_FEATURES>
9
1 2 acceptor
1 31 hydrophobe
1 4 acceptor
1 5 acceptor
1 6 acceptor
1 7 acceptor
3 12 15 17 hydrophobe
3 19 25 27 hydrophobe
6 21 29 30 32 33 34 rings

> <PUBCHEM_HEAVY_ATOM_COUNT>
35

> <PUBCHEM_ATOM_DEF_STEREO_COUNT>
4

> <PUBCHEM_ATOM_UDEF_STEREO_COUNT>
0

> <PUBCHEM_BOND_DEF_STEREO_COUNT>
0

> <PUBCHEM_BOND_UDEF_STEREO_COUNT>
0

> <PUBCHEM_ISOTOPIC_ATOM_COUNT>
0

> <PUBCHEM_COMPONENT_COUNT>
1

> <PUBCHEM_CACTVS_TAUTO_COUNT>
8

> <PUBCHEM_CONFORMER_ID>
02A3BFBA00000001

> <PUBCHEM_MMFF94_ENERGY>
74.0282

> <PUBCHEM_FEATURE_SELFOVERLAP>
45.719

> <PUBCHEM_SHAPE_FINGERPRINT>
10305334 12 17272886179788274818
11387372 6 17414751759448720838
11578080 2 18267305331916045705
12633046 712 17701539734557453708
13383668 90 17750257909362601258
14114206 34 17775286011241701584
14114207 22 17839493018936663337
17974551 9 17201648971774487569
19309040 13 16950561044072097310
20775530 9 17695344064187115306
484985 159 18129681750326599186
59444896 2 16984342284483908777

> <PUBCHEM_SHAPE_MULTIPOLES>
674.22
12.99
5.14
4.12
36.71
6.51
-0.35
1.45
15.73
-2.44
-0.73
-3.1
-3.64
4.92

> <PUBCHEM_SHAPE_SELFOVERLAP>
1352.208

> <PUBCHEM_SHAPE_VOLUME>
393.3

> <PUBCHEM_COORDINATE_TYPE>
2
5
10

$$$$