44565482
  -OEChem-03242010103D

 55 58  0     1  0  0  0  0  0999 V2000
    4.0412    1.0237   -0.7921 O   0  0  0  0  0  0  0  0  0  0  0  0
   -4.5438   -0.1140   -0.2069 N   0  0  1  0  0  0  0  0  0  0  0  0
    3.2459   -0.9567    0.1746 N   0  0  0  0  0  0  0  0  0  0  0  0
    5.4910   -0.4339    0.3224 N   0  0  0  0  0  0  0  0  0  0  0  0
    7.8586   -1.5718    1.4308 N   0  0  0  0  0  0  0  0  0  0  0  0
   -5.1351   -1.4360    0.0337 C   0  0  0  0  0  0  0  0  0  0  0  0
   -5.2354    0.9074    0.5994 C   0  0  0  0  0  0  0  0  0  0  0  0
   -6.5757   -1.4644   -0.4870 C   0  0  0  0  0  0  0  0  0  0  0  0
   -3.1137   -0.1215    0.0984 C   0  0  0  0  0  0  0  0  0  0  0  0
   -6.7382    0.8791    0.4395 C   0  0  0  0  0  0  0  0  0  0  0  0
   -7.3833   -0.2742   -0.0394 C   0  0  0  0  0  0  0  0  0  0  0  0
   -2.3219   -0.8255   -1.0040 C   0  0  0  0  0  0  0  0  0  0  0  0
   -7.5034    1.9864    0.8302 C   0  0  0  0  0  0  0  0  0  0  0  0
   -8.7792   -0.2899   -0.1556 C   0  0  0  0  0  0  0  0  0  0  0  0
   -0.8473   -0.8596   -0.6909 C   0  0  0  0  0  0  0  0  0  0  0  0
   -8.8934    1.9576    0.7198 C   0  0  0  0  0  0  0  0  0  0  0  0
   -9.5303    0.8216    0.2253 C   0  0  0  0  0  0  0  0  0  0  0  0
   -0.0195    0.1794   -1.1165 C   0  0  0  0  0  0  0  0  0  0  0  0
   -0.3106   -1.9308    0.0234 C   0  0  0  0  0  0  0  0  0  0  0  0
    1.3447    0.1471   -0.8282 C   0  0  0  0  0  0  0  0  0  0  0  0
    1.0537   -1.9632    0.3118 C   0  0  0  0  0  0  0  0  0  0  0  0
    1.8813   -0.9242   -0.1140 C   0  0  0  0  0  0  0  0  0  0  0  0
    4.2440   -0.0108   -0.1646 C   0  0  0  0  0  0  0  0  0  0  0  0
    6.7407    0.2183    0.1998 C   0  0  0  0  0  0  0  0  0  0  0  0
    7.8987   -0.3388    0.7421 C   0  0  0  0  0  0  0  0  0  0  0  0
    6.8037    1.4361   -0.4774 C   0  0  0  0  0  0  0  0  0  0  0  0
    9.1198    0.3219    0.6075 C   0  0  0  0  0  0  0  0  0  0  0  0
    8.0248    2.0968   -0.6123 C   0  0  0  0  0  0  0  0  0  0  0  0
    9.1827    1.5398   -0.0698 C   0  0  0  0  0  0  0  0  0  0  0  0
   -5.1187   -1.6784    1.1054 H   0  0  0  0  0  0  0  0  0  0  0  0
   -4.5933   -2.2355   -0.4805 H   0  0  0  0  0  0  0  0  0  0  0  0
   -4.8756    1.8969    0.2903 H   0  0  0  0  0  0  0  0  0  0  0  0
   -5.0071    0.7802    1.6663 H   0  0  0  0  0  0  0  0  0  0  0  0
   -6.5677   -1.4775   -1.5845 H   0  0  0  0  0  0  0  0  0  0  0  0
   -7.0565   -2.3886   -0.1446 H   0  0  0  0  0  0  0  0  0  0  0  0
   -2.7449    0.9117    0.1615 H   0  0  0  0  0  0  0  0  0  0  0  0
   -2.9181   -0.5766    1.0788 H   0  0  0  0  0  0  0  0  0  0  0  0
   -2.4784   -0.3163   -1.9645 H   0  0  0  0  0  0  0  0  0  0  0  0
   -2.6566   -1.8567   -1.1609 H   0  0  0  0  0  0  0  0  0  0  0  0
   -7.0192    2.8770    1.2226 H   0  0  0  0  0  0  0  0  0  0  0  0
   -9.2877   -1.1686   -0.5440 H   0  0  0  0  0  0  0  0  0  0  0  0
   -9.4795    2.8212    1.0204 H   0  0  0  0  0  0  0  0  0  0  0  0
  -10.6126    0.8015    0.1363 H   0  0  0  0  0  0  0  0  0  0  0  0
   -0.4277    1.0196   -1.6722 H   0  0  0  0  0  0  0  0  0  0  0  0
   -0.9458   -2.7451    0.3621 H   0  0  0  0  0  0  0  0  0  0  0  0
    1.9172    0.9883   -1.1917 H   0  0  0  0  0  0  0  0  0  0  0  0
    1.4583   -2.8039    0.8696 H   0  0  0  0  0  0  0  0  0  0  0  0
    3.5618   -1.7693    0.6983 H   0  0  0  0  0  0  0  0  0  0  0  0
    5.4937   -1.3160    0.8227 H   0  0  0  0  0  0  0  0  0  0  0  0
    5.9607    1.9389   -0.9269 H   0  0  0  0  0  0  0  0  0  0  0  0
   10.0302   -0.1008    1.0250 H   0  0  0  0  0  0  0  0  0  0  0  0
    8.0756    3.0453   -1.1393 H   0  0  0  0  0  0  0  0  0  0  0  0
   10.1334    2.0543   -0.1749 H   0  0  0  0  0  0  0  0  0  0  0  0
    6.9971   -2.0820    1.5540 H   0  0  0  0  0  0  0  0  0  0  0  0
    8.7135   -1.9527    1.8157 H   0  0  0  0  0  0  0  0  0  0  0  0
  1 23  2  0  0  0  0
  2  6  1  0  0  0  0
  2  7  1  0  0  0  0
  2  9  1  0  0  0  0
  3 22  1  0  0  0  0
  3 23  1  0  0  0  0
  3 48  1  0  0  0  0
  4 23  1  0  0  0  0
  4 24  1  0  0  0  0
  4 49  1  0  0  0  0
  5 25  1  0  0  0  0
  5 54  1  0  0  0  0
  5 55  1  0  0  0  0
  6  8  1  0  0  0  0
  6 30  1  0  0  0  0
  6 31  1  0  0  0  0
  7 10  1  0  0  0  0
  7 32  1  0  0  0  0
  7 33  1  0  0  0  0
  8 11  1  0  0  0  0
  8 34  1  0  0  0  0
  8 35  1  0  0  0  0
  9 12  1  0  0  0  0
  9 36  1  0  0  0  0
  9 37  1  0  0  0  0
 10 11  1  0  0  0  0
 10 13  2  0  0  0  0
 11 14  2  0  0  0  0
 12 15  1  0  0  0  0
 12 38  1  0  0  0  0
 12 39  1  0  0  0  0
 13 16  1  0  0  0  0
 13 40  1  0  0  0  0
 14 17  1  0  0  0  0
 14 41  1  0  0  0  0
 15 18  2  0  0  0  0
 15 19  1  0  0  0  0
 16 17  2  0  0  0  0
 16 42  1  0  0  0  0
 17 43  1  0  0  0  0
 18 20  1  0  0  0  0
 18 44  1  0  0  0  0
 19 21  2  0  0  0  0
 19 45  1  0  0  0  0
 20 22  2  0  0  0  0
 20 46  1  0  0  0  0
 21 22  1  0  0  0  0
 21 47  1  0  0  0  0
 24 25  1  0  0  0  0
 24 26  2  0  0  0  0
 25 27  2  0  0  0  0
 26 28  1  0  0  0  0
 26 50  1  0  0  0  0
 27 29  1  0  0  0  0
 27 51  1  0  0  0  0
 28 29  2  0  0  0  0
 28 52  1  0  0  0  0
 29 53  1  0  0  0  0
M  END
> <PUBCHEM_COMPOUND_CID>
44565482

> <PUBCHEM_CONFORMER_RMSD>
1

> <PUBCHEM_CONFORMER_DIVERSEORDER>
1
102
69
135
87
27
151
42
48
55
60
2
153
23
62
129
154
127
63
24
179
44
94
126
80
57
56
75
89
45
33
117
164
21
158
104
128
112
20
77
97
118
166
67
72
101
161
99
50
82
26
93
49
138
116
12
125
163
53
146
152
149
85
14
70
78
167
41
143
140
108
169
96
35
132
91
150
54
81
31
122
171
76
160
61
172
7
43
139
110
120
18
40
68
65
137
64
109
155
159
39
98
83
52
36
19
133
66
115
17
147
95
25
119
46
176
59
37
121
58
47
34
113
90
136
130
173
16
88
86
51
114
175
123
106
15
131
157
178
6
11
148
28
5
71
73
107
13
170
111
79
156
3
168
145
103
142
84
124
144
105
30
74
38
100
165
134
162
29
92
174
8
4
10
32
22
9
141
177

> <PUBCHEM_MMFF94_PARTIAL_CHARGES>
45
1 -0.57
10 -0.14
11 -0.14
12 0.14
13 -0.15
14 -0.15
15 -0.14
16 -0.15
17 -0.15
18 -0.15
19 -0.15
2 -0.81
20 -0.15
21 -0.15
22 0.12
23 0.69
24 0.12
25 0.1
26 -0.15
27 -0.15
28 -0.15
29 -0.15
3 -0.55
4 -0.55
40 0.15
41 0.15
42 0.15
43 0.15
44 0.15
45 0.15
46 0.15
47 0.15
48 0.37
49 0.37
5 -0.9
50 0.15
51 0.15
52 0.15
53 0.15
54 0.4
55 0.4
6 0.27
7 0.41
8 0.14
9 0.27

> <PUBCHEM_EFFECTIVE_ROTOR_COUNT>
7.8

> <PUBCHEM_PHARMACOPHORE_FEATURES>
10
1 1 acceptor
1 2 cation
1 3 donor
1 4 donor
1 5 cation
1 5 donor
6 10 11 13 14 16 17 rings
6 15 18 19 20 21 22 rings
6 2 6 7 8 10 11 rings
6 24 25 26 27 28 29 rings

> <PUBCHEM_HEAVY_ATOM_COUNT>
29

> <PUBCHEM_ATOM_DEF_STEREO_COUNT>
0

> <PUBCHEM_ATOM_UDEF_STEREO_COUNT>
0

> <PUBCHEM_BOND_DEF_STEREO_COUNT>
0

> <PUBCHEM_BOND_UDEF_STEREO_COUNT>
0

> <PUBCHEM_ISOTOPIC_ATOM_COUNT>
0

> <PUBCHEM_COMPONENT_COUNT>
1

> <PUBCHEM_CACTVS_TAUTO_COUNT>
3

> <PUBCHEM_CONFORMER_ID>
02A803EA00000001

> <PUBCHEM_MMFF94_ENERGY>
96.9171

> <PUBCHEM_FEATURE_SELFOVERLAP>
50.82

> <PUBCHEM_SHAPE_FINGERPRINT>
10 15 18186239528272158877
10076449 9 12535629366938307107
10533779 47 16588308237285661856
106641 1 17821729450685717971
10904742 90 18341894090929665927
11135609 127 11383534730311434346
11315181 36 18410575094492814103
11386260 185 14405174093461143474
12089408 11 18411416219785782567
12498461 61 14490479716546267297
12522641 33 18202285797327927558
12539745 222 13190329158982161207
12539765 74 18201726154372502830
12664476 115 18273209799256740817
13248334 5 18125163727546077767
13553643 46 18113334215049483413
14117953 113 14476966722883060840
14118638 360 15769788913801416002
14150022 121 18336544920244039413
14251764 18 18409447011998702398
14251764 46 18410573993741392231
14344974 52 16415188018405181089
14428016 248 18335143115478771172
14617042 71 18115312306252692492
14849402 71 18335985362707808429
150020 25 15267339638879357330
15183329 4 11672063030420048045
15247644 1 14057004927922618857
15461852 350 17275099566310730615
15510794 2 17632301167836527159
155225 1 18131071511871077201
15690457 1 8430319030847582564
1577012 14 18341889692914640903
15773216 30 14907635440708115980
15840311 113 18261115180162256980
16989713 51 16987707074065625383
16992610 120 18411429431901621358
1754911 235 13398631641259160449
1818759 1 11386365932863530624
18335252 114 14476954606305422682
19315958 150 18410859828495874687
20505436 4 18273208694817578727
21150785 3 10952050056746992302
21267235 1 8934995972019763023
21362267 313 18268710515506779706
21591340 7 18410291432575942199
21792934 111 16732982041930294756
21895431 317 11599466659154663548
21927370 108 15430032137164332247
22224240 67 17894912931672071699
23576562 1 14691987216161881089
246663 6 13984663646081416980
24771293 8 18335140903470004029
249057 3 15625937672682045560
306946 40 16200140020546038930
3092352 35 18342453751107028054
3178227 256 17022623083221568676
3711267 37 18060430135031401472
395649 100 18336825399173263999
4073 2 18409173208214332363
4339292 15 12973891451244150683
44802255 64 16486972878795972149
54039377 194 8862938377960482713
5758199 1 18333732420548587555
59682541 35 17385726902157264233
636775 72 18271529702840734081
636775 8 11311761892663266141
67123 10 18411136952290022887
9663363 56 16298383562284045975
99344 41 18411983572112616783
9953998 17 17676207992081679779

> <PUBCHEM_SHAPE_MULTIPOLES>
571.01
37.76
1.93
0.94
7.75
0.24
0
18.47
7.53
-0.47
0.18
0.56
-0.01
-2.56

> <PUBCHEM_SHAPE_SELFOVERLAP>
1232.779

> <PUBCHEM_SHAPE_VOLUME>
311.6

> <PUBCHEM_COORDINATE_TYPE>
2
5
10

$$$$