44565508
  -OEChem-03242010103D

 63 66  0     1  0  0  0  0  0999 V2000
    8.8261   -2.1612   -0.2424 O   0  0  0  0  0  0  0  0  0  0  0  0
    9.6684    0.4683   -0.5473 O   0  0  0  0  0  0  0  0  0  0  0  0
   -5.2843    0.9025   -0.7818 O   0  0  0  0  0  0  0  0  0  0  0  0
    3.3125    0.4334    0.3203 N   0  0  2  0  0  0  0  0  0  0  0  0
   -4.4616   -0.3476    1.0209 N   0  0  0  0  0  0  0  0  0  0  0  0
   -6.6985   -0.4847    0.4612 N   0  0  0  0  0  0  0  0  0  0  0  0
  -11.4475   -1.4810    0.1408 N   0  0  0  0  0  0  0  0  0  0  0  0
    3.6019    1.5717   -0.5606 C   0  0  0  0  0  0  0  0  0  0  0  0
    4.1425   -0.7249   -0.0553 C   0  0  0  0  0  0  0  0  0  0  0  0
    5.0380    2.0543   -0.3330 C   0  0  0  0  0  0  0  0  0  0  0  0
    5.6149   -0.3979   -0.1568 C   0  0  0  0  0  0  0  0  0  0  0  0
    6.0405    0.9297   -0.3350 C   0  0  0  0  0  0  0  0  0  0  0  0
    1.8940    0.0822    0.2652 C   0  0  0  0  0  0  0  0  0  0  0  0
    1.0617    1.0267    1.1329 C   0  0  0  0  0  0  0  0  0  0  0  0
    6.5626   -1.4301   -0.1387 C   0  0  0  0  0  0  0  0  0  0  0  0
    7.4080    1.2091   -0.4549 C   0  0  0  0  0  0  0  0  0  0  0  0
    7.9214   -1.1429   -0.2685 C   0  0  0  0  0  0  0  0  0  0  0  0
    8.3436    0.1754   -0.4242 C   0  0  0  0  0  0  0  0  0  0  0  0
   -0.4012    0.6619    1.1025 C   0  0  0  0  0  0  0  0  0  0  0  0
   -1.2402    1.2233    0.1399 C   0  0  0  0  0  0  0  0  0  0  0  0
   -0.9155   -0.2361    2.0377 C   0  0  0  0  0  0  0  0  0  0  0  0
   -2.5936    0.8869    0.1126 C   0  0  0  0  0  0  0  0  0  0  0  0
   -2.2689   -0.5725    2.0106 C   0  0  0  0  0  0  0  0  0  0  0  0
   -3.1080   -0.0109    1.0480 C   0  0  0  0  0  0  0  0  0  0  0  0
    9.1598   -2.7633   -1.4916 C   0  0  0  0  0  0  0  0  0  0  0  0
   10.3891    0.7275    0.6560 C   0  0  0  0  0  0  0  0  0  0  0  0
   -5.4680    0.1075    0.1344 C   0  0  0  0  0  0  0  0  0  0  0  0
   -7.9497   -0.2998   -0.1731 C   0  0  0  0  0  0  0  0  0  0  0  0
   -9.0756   -0.9777    0.2943 C   0  0  0  0  0  0  0  0  0  0  0  0
   -8.0570    0.5600   -1.2661 C   0  0  0  0  0  0  0  0  0  0  0  0
  -10.3089   -0.7956   -0.3315 C   0  0  0  0  0  0  0  0  0  0  0  0
   -9.2903    0.7418   -1.8920 C   0  0  0  0  0  0  0  0  0  0  0  0
  -10.4162    0.0641   -1.4247 C   0  0  0  0  0  0  0  0  0  0  0  0
    2.9374    2.4198   -0.3654 H   0  0  0  0  0  0  0  0  0  0  0  0
    3.4625    1.2925   -1.6142 H   0  0  0  0  0  0  0  0  0  0  0  0
    4.0161   -1.5051    0.7060 H   0  0  0  0  0  0  0  0  0  0  0  0
    3.8205   -1.1362   -1.0216 H   0  0  0  0  0  0  0  0  0  0  0  0
    5.2940    2.7808   -1.1135 H   0  0  0  0  0  0  0  0  0  0  0  0
    5.1026    2.5663    0.6357 H   0  0  0  0  0  0  0  0  0  0  0  0
    1.5246    0.0615   -0.7691 H   0  0  0  0  0  0  0  0  0  0  0  0
    1.7503   -0.9339    0.6584 H   0  0  0  0  0  0  0  0  0  0  0  0
    1.1642    2.0696    0.8113 H   0  0  0  0  0  0  0  0  0  0  0  0
    1.4201    1.0013    2.1708 H   0  0  0  0  0  0  0  0  0  0  0  0
    6.2387   -2.4619   -0.0223 H   0  0  0  0  0  0  0  0  0  0  0  0
    7.7432    2.2370   -0.5731 H   0  0  0  0  0  0  0  0  0  0  0  0
   -0.8492    1.9225   -0.5947 H   0  0  0  0  0  0  0  0  0  0  0  0
   -0.2715   -0.6813    2.7914 H   0  0  0  0  0  0  0  0  0  0  0  0
   -3.1759    1.3634   -0.6630 H   0  0  0  0  0  0  0  0  0  0  0  0
   -2.6562   -1.2739    2.7453 H   0  0  0  0  0  0  0  0  0  0  0  0
    8.2729   -3.2128   -1.9496 H   0  0  0  0  0  0  0  0  0  0  0  0
    9.6003   -2.0256   -2.1697 H   0  0  0  0  0  0  0  0  0  0  0  0
    9.8952   -3.5510   -1.3065 H   0  0  0  0  0  0  0  0  0  0  0  0
    9.9748    1.6003    1.1706 H   0  0  0  0  0  0  0  0  0  0  0  0
   10.3638   -0.1453    1.3161 H   0  0  0  0  0  0  0  0  0  0  0  0
   11.4296    0.9373    0.3936 H   0  0  0  0  0  0  0  0  0  0  0  0
   -4.7620   -1.0078    1.7338 H   0  0  0  0  0  0  0  0  0  0  0  0
   -6.7008   -1.1267    1.2498 H   0  0  0  0  0  0  0  0  0  0  0  0
   -8.9927   -1.6485    1.1468 H   0  0  0  0  0  0  0  0  0  0  0  0
   -7.2344    1.1198   -1.6873 H   0  0  0  0  0  0  0  0  0  0  0  0
   -9.3751    1.4110   -2.7434 H   0  0  0  0  0  0  0  0  0  0  0  0
  -11.3716    0.2143   -1.9210 H   0  0  0  0  0  0  0  0  0  0  0  0
  -11.3708   -2.1041    0.9337 H   0  0  0  0  0  0  0  0  0  0  0  0
  -12.3420   -1.3489   -0.3123 H   0  0  0  0  0  0  0  0  0  0  0  0
  1 17  1  0  0  0  0
  1 25  1  0  0  0  0
  2 18  1  0  0  0  0
  2 26  1  0  0  0  0
  3 27  2  0  0  0  0
  4  8  1  0  0  0  0
  4  9  1  0  0  0  0
  4 13  1  0  0  0  0
  5 24  1  0  0  0  0
  5 27  1  0  0  0  0
  5 56  1  0  0  0  0
  6 27  1  0  0  0  0
  6 28  1  0  0  0  0
  6 57  1  0  0  0  0
  7 31  1  0  0  0  0
  7 62  1  0  0  0  0
  7 63  1  0  0  0  0
  8 10  1  0  0  0  0
  8 34  1  0  0  0  0
  8 35  1  0  0  0  0
  9 11  1  0  0  0  0
  9 36  1  0  0  0  0
  9 37  1  0  0  0  0
 10 12  1  0  0  0  0
 10 38  1  0  0  0  0
 10 39  1  0  0  0  0
 11 12  1  0  0  0  0
 11 15  2  0  0  0  0
 12 16  2  0  0  0  0
 13 14  1  0  0  0  0
 13 40  1  0  0  0  0
 13 41  1  0  0  0  0
 14 19  1  0  0  0  0
 14 42  1  0  0  0  0
 14 43  1  0  0  0  0
 15 17  1  0  0  0  0
 15 44  1  0  0  0  0
 16 18  1  0  0  0  0
 16 45  1  0  0  0  0
 17 18  2  0  0  0  0
 19 20  2  0  0  0  0
 19 21  1  0  0  0  0
 20 22  1  0  0  0  0
 20 46  1  0  0  0  0
 21 23  2  0  0  0  0
 21 47  1  0  0  0  0
 22 24  2  0  0  0  0
 22 48  1  0  0  0  0
 23 24  1  0  0  0  0
 23 49  1  0  0  0  0
 25 50  1  0  0  0  0
 25 51  1  0  0  0  0
 25 52  1  0  0  0  0
 26 53  1  0  0  0  0
 26 54  1  0  0  0  0
 26 55  1  0  0  0  0
 28 29  1  0  0  0  0
 28 30  2  0  0  0  0
 29 31  2  0  0  0  0
 29 58  1  0  0  0  0
 30 32  1  0  0  0  0
 30 59  1  0  0  0  0
 31 33  1  0  0  0  0
 32 33  2  0  0  0  0
 32 60  1  0  0  0  0
 33 61  1  0  0  0  0
M  END
> <PUBCHEM_COMPOUND_CID>
44565508

> <PUBCHEM_CONFORMER_RMSD>
1

> <PUBCHEM_CONFORMER_DIVERSEORDER>
1
245
22
182
124
123
248
91
236
120
160
133
58
156
121
99
244
107
199
28
200
232
227
165
111
249
105
12
113
63
198
104
274
270
166
241
219
143
194
2
89
108
164
137
181
217
95
170
226
59
69
4
72
151
112
284
46
261
180
80
211
169
138
64
230
101
5
38
257
276
161
186
3
153
141
98
228
234
206
146
17
129
106
263
52
144
224
209
178
53
128
258
73
78
265
171
202
82
57
252
240
140
43
229
145
70
110
167
77
13
278
179
62
51
225
132
115
65
162
26
93
212
68
130
255
60
282
221
155
215
126
131
210
71
262
114
29
172
242
175
173
85
260
83
42
149
24
205
84
118
139
81
254
100
168
256
268
54
102
275
266
158
190
177
208
150
90
134
142
213
35
74
19
243
197
231
188
86
44
246
79
269
23
94
235
122
50
88
237
191
127
285
67
264
56
253
247
87
185
6
40
116
196
176
223
15
239
117
136
238
277
192
75
9
39
251
125
159
259
32
76
8
119
66
222
96
184
280
45
250
187
148
37
233
220
27
7
283
25
103
16
33
183
135
195
92
61
34
281
31
163
189
193
152
214
272
21
109
49
218
97
201
47
273
204
216
203
279
36
30
154
147
48
267
14
286
55
271
11
207
41
157
10
18
20
174

> <PUBCHEM_MMFF94_PARTIAL_CHARGES>
47
1 -0.36
10 0.14
11 -0.14
12 -0.14
13 0.27
14 0.14
15 -0.15
16 -0.15
17 0.08
18 0.08
19 -0.14
2 -0.36
20 -0.15
21 -0.15
22 -0.15
23 -0.15
24 0.12
25 0.28
26 0.28
27 0.69
28 0.12
29 -0.15
3 -0.57
30 -0.15
31 0.1
32 -0.15
33 -0.15
4 -0.81
44 0.15
45 0.15
46 0.15
47 0.15
48 0.15
49 0.15
5 -0.55
56 0.37
57 0.37
58 0.15
59 0.15
6 -0.55
60 0.15
61 0.15
62 0.4
63 0.4
7 -0.9
8 0.27
9 0.41

> <PUBCHEM_EFFECTIVE_ROTOR_COUNT>
9.8

> <PUBCHEM_PHARMACOPHORE_FEATURES>
12
1 1 acceptor
1 2 acceptor
1 3 acceptor
1 4 cation
1 5 donor
1 6 donor
1 7 cation
1 7 donor
6 11 12 15 16 17 18 rings
6 19 20 21 22 23 24 rings
6 28 29 30 31 32 33 rings
6 4 8 9 10 11 12 rings

> <PUBCHEM_HEAVY_ATOM_COUNT>
33

> <PUBCHEM_ATOM_DEF_STEREO_COUNT>
0

> <PUBCHEM_ATOM_UDEF_STEREO_COUNT>
0

> <PUBCHEM_BOND_DEF_STEREO_COUNT>
0

> <PUBCHEM_BOND_UDEF_STEREO_COUNT>
0

> <PUBCHEM_ISOTOPIC_ATOM_COUNT>
0

> <PUBCHEM_COMPONENT_COUNT>
1

> <PUBCHEM_CACTVS_TAUTO_COUNT>
3

> <PUBCHEM_CONFORMER_ID>
02A8040400000001

> <PUBCHEM_MMFF94_ENERGY>
127.0266

> <PUBCHEM_FEATURE_SELFOVERLAP>
60.971

> <PUBCHEM_SHAPE_FINGERPRINT>
10076449 9 17989204846116388521
10162869 55 18273496784597020136
10533779 47 11167951285506751405
106641 1 11671781576876053529
11061554 47 16877653582790130861
11409948 35 15285904838098314216
11409948 41 18270119003383624046
11534866 41 14764632993692594116
11966995 16 17822296748175347310
12089408 11 17775291542684792648
12522641 33 14562526276058792417
12539745 222 16773801364431347601
12664476 115 16081083792344392652
13150687 139 18040436589996016659
13553643 46 10665216044349362647
14117953 113 17095527296538135070
14150022 121 10087654697695988299
14251764 46 17095240332714655821
14344974 52 17603587473759796849
14428016 248 13262398852216923687
14617042 71 8430302542521491430
150020 25 18040437706897905755
15065858 18 18412821396057361581
15198563 99 17749390313110768845
15247644 1 17561366183834651815
15510794 2 18187367653415367635
155225 1 13262398864759096447
15690457 1 17131832057943166310
15706992 2 12468644893944416843
16728433 110 17917425457983835032
16992610 120 15791736291125888283
1754911 235 17748823025914525967
1818759 1 16773799212578696607
18335252 98 13110969716803492036
20105231 36 18272651295227369415
21095123 293 13479132385008042807
21792961 116 18409732855489877393
22164985 6 17632289107900714421
232437 2 18131070442012464815
23524908 199 18113614552238933866
23576562 1 17241614004316932951
249057 3 17313108578627135529
3092352 35 17561080342774727895
335352 9 16877662374798713645
3711267 37 12251905858831935031
44389302 135 15339121212564840022
4874694 18 18333450950653049178
5219985 9 16917068871902410993
57303763 39 13542168550617481324
58083652 198 17988650743352629200
5937810 71 18040991784409795205
59521099 67 18343021138052498840
59682541 35 12319734769687330341
6081469 158 18334012791718677396
6201320 82 15720215199656095239
6673363 416 17385439918003869781
67123 10 18334857225438866013
9937071 3 18060139834028512414
9953998 17 10591755485767839377
9962374 69 15482661412115671009

> <PUBCHEM_SHAPE_MULTIPOLES>
641.59
45.99
1.69
1.39
39
0.63
0.21
15.33
-17.91
-4.24
-0.48
1.93
0.06
1.93

> <PUBCHEM_SHAPE_SELFOVERLAP>
1375.848

> <PUBCHEM_SHAPE_VOLUME>
354.3

> <PUBCHEM_COORDINATE_TYPE>
2
5
10

$$$$