51
 OpenBabel03292021473D

212213  0  0  1  0  0  0  0  0999 V2000
    1.2658   -5.3604    3.1333 C   0  0  0  0  0  0  0  0  0  0  0  0
    1.7856   -4.8381    1.7907 C   0  0  0  0  0  0  0  0  0  0  0  0
    3.1538   -5.2975    1.2421 C   0  0  0  0  0  0  0  0  0  0  0  0
    4.0990   -6.0428    1.8555 C   0  0  0  0  0  0  0  0  0  0  0  0
    5.5249   -6.5938    1.4865 C   0  0  0  0  0  0  0  0  0  0  0  0
    6.3043   -6.5675    0.0743 C   0  0  1  0  0  0  0  0  0  0  0  0
    6.3963   -5.0171   -0.2323 C   0  0  0  0  0  0  0  0  0  0  0  0
    7.8976   -7.3336    0.1135 C   0  0  1  0  0  0  0  0  0  0  0  0
    8.4957   -6.9950    1.4016 O   0  0  0  0  0  0  0  0  0  0  0  0
    9.1912   -8.1770   -0.9299 C   0  0  1  0  0  0  0  0  0  0  0  0
    9.5141   -9.9859   -1.5124 C   0  0  0  0  0  0  0  0  0  0  0  0
    8.5094  -10.6560   -1.8038 O   0  0  0  0  0  0  0  0  0  0  0  0
   10.9270  -10.6769   -1.8161 N   0  0  0  0  0  0  0  0  0  0  0  0
   11.6667  -11.8896   -2.9969 C   0  0  1  0  0  0  0  0  0  0  0  0
   12.6396  -11.0254   -3.7483 C   0  0  0  0  0  0  0  0  0  0  0  0
   13.9468  -10.7741   -3.0145 C   0  0  0  0  0  0  0  0  0  0  0  0
   12.6163  -13.5111   -3.4389 C   0  0  0  0  0  0  0  0  0  0  0  0
   12.3207  -14.5458   -2.8053 O   0  0  0  0  0  0  0  0  0  0  0  0
   13.6555  -13.7414   -4.6633 N   0  0  0  0  0  0  0  0  0  0  0  0
   14.5379  -12.6906   -5.1995 C   0  0  0  0  0  0  0  0  0  0  0  0
   14.3485  -15.1844   -5.3376 C   0  0  1  0  0  0  0  0  0  0  0  0
   14.7245  -16.3807   -4.4705 C   0  0  0  0  0  0  0  0  0  0  0  0
   15.7724  -16.1618   -3.4165 C   0  0  0  0  0  0  0  0  0  0  0  0
   15.3727  -16.0789   -2.0775 C   0  0  0  0  0  0  0  0  0  0  0  0
   16.3366  -15.9552   -1.0899 C   0  0  0  0  0  0  0  0  0  0  0  0
   17.6948  -15.9134   -1.3998 C   0  0  0  0  0  0  0  0  0  0  0  0
   18.1034  -16.0106   -2.7336 C   0  0  0  0  0  0  0  0  0  0  0  0
   17.1552  -16.1345   -3.7357 C   0  0  0  0  0  0  0  0  0  0  0  0
   14.3751  -15.5383   -7.0258 C   0  0  0  0  0  0  0  0  0  0  0  0
   14.3993  -14.5472   -7.7791 O   0  0  0  0  0  0  0  0  0  0  0  0
   14.4312  -16.8167   -7.6730 N   0  0  0  0  0  0  0  0  0  0  0  0
   14.7454  -18.1376   -7.1170 C   0  0  0  0  0  0  0  0  0  0  0  0
   14.1493  -16.8777   -9.1744 C   0  0  2  0  0  0  0  0  0  0  0  0
   12.7056  -17.4227   -9.4308 C   0  0  0  0  0  0  0  0  0  0  0  0
   11.5729  -16.5436   -8.8793 C   0  0  0  0  0  0  0  0  0  0  0  0
   10.2232  -16.9317   -9.4840 C   0  0  0  0  0  0  0  0  0  0  0  0
   11.4146  -16.6376   -7.3613 C   0  0  0  0  0  0  0  0  0  0  0  0
   15.0907  -17.7927  -10.0603 C   0  0  0  0  0  0  0  0  0  0  0  0
   15.3016  -18.9778   -9.7690 O   0  0  0  0  0  0  0  0  0  0  0  0
   15.6514  -17.3985  -11.2439 N   0  0  0  0  0  0  0  0  0  0  0  0
   15.8880  -16.0799  -11.8612 C   0  0  2  0  0  0  0  0  0  0  0  0
   16.5594  -15.0857  -10.8881 C   0  0  0  0  0  0  0  0  0  0  0  0
   16.7927  -13.7226  -11.5393 C   0  0  0  0  0  0  0  0  0  0  0  0
   17.8908  -15.6339  -10.3535 C   0  0  0  0  0  0  0  0  0  0  0  0
   14.5537  -15.5566  -12.4776 C   0  0  0  0  0  0  0  0  0  0  0  0
   13.6182  -15.2864  -11.7238 O   0  0  0  0  0  0  0  0  0  0  0  0
   14.3821  -15.5068  -13.8606 N   0  0  0  0  0  0  0  0  0  0  0  0
   15.4896  -15.4360  -14.8210 C   0  0  0  0  0  0  0  0  0  0  0  0
   13.0423  -15.0630  -14.3503 C   0  0  2  0  0  0  0  0  0  0  0  0
   12.4505  -15.9771  -15.4397 C   0  0  0  0  0  0  0  0  0  0  0  0
   12.1882  -17.4352  -15.0118 C   0  0  0  0  0  0  0  0  0  0  0  0
   11.3509  -17.5598  -13.7365 C   0  0  0  0  0  0  0  0  0  0  0  0
   11.4753  -18.1634  -16.1548 C   0  0  0  0  0  0  0  0  0  0  0  0
   13.0882  -13.6042  -14.8900 C   0  0  0  0  0  0  0  0  0  0  0  0
   13.7364  -13.3060  -15.8705 O   0  0  0  0  0  0  0  0  0  0  0  0
   12.4313  -12.6054  -14.2244 N   0  0  0  0  0  0  0  0  0  0  0  0
   11.4866  -12.7027  -13.0972 C   0  0  1  0  0  0  0  0  0  0  0  0
   11.5195  -11.3770  -12.3687 C   0  0  0  0  0  0  0  0  0  0  0  0
   10.1068  -13.1745  -13.6428 C   0  0  0  0  0  0  0  0  0  0  0  0
   10.0111  -13.7648  -14.7256 O   0  0  0  0  0  0  0  0  0  0  0  0
    8.9759  -13.1877  -12.8675 N   0  0  0  0  0  0  0  0  0  0  0  0
    8.1195  -12.0010  -12.6348 C   0  0  2  0  0  0  0  0  0  0  0  0
    8.2026  -10.9578  -13.7502 C   0  0  0  0  0  0  0  0  0  0  0  0
    8.2966  -11.3898  -11.2211 C   0  0  0  0  0  0  0  0  0  0  0  0
    8.9605  -10.3665  -11.0648 O   0  0  0  0  0  0  0  0  0  0  0  0
    7.7811  -12.1195  -10.1466 N   0  0  0  0  0  0  0  0  0  0  0  0
    6.3777  -12.5159  -10.1386 C   0  0  0  0  0  0  0  0  0  0  0  0
    8.4096  -11.9977   -8.8051 C   0  0  1  0  0  0  0  0  0  0  0  0
    9.8364  -12.5308   -8.8153 C   0  0  0  0  0  0  0  0  0  0  0  0
   10.5556  -12.4628   -7.4690 C   0  0  0  0  0  0  0  0  0  0  0  0
    9.9180  -13.3826   -6.4318 C   0  0  0  0  0  0  0  0  0  0  0  0
   12.0153  -12.7872   -7.7194 C   0  0  0  0  0  0  0  0  0  0  0  0
    8.0424  -10.7124   -7.9936 C   0  0  0  0  0  0  0  0  0  0  0  0
    7.0557  -10.8124   -7.2491 O   0  0  0  0  0  0  0  0  0  0  0  0
    8.6658   -9.4867   -8.1786 N   0  0  0  0  0  0  0  0  0  0  0  0
   10.0354   -9.2975   -8.6718 C   0  0  0  0  0  0  0  0  0  0  0  0
    7.9937   -8.2311   -7.7303 C   0  0  1  0  0  0  0  0  0  0  0  0
    6.5146   -8.1166   -8.0961 C   0  0  0  0  0  0  0  0  0  0  0  0
    5.9068   -6.7584   -7.7098 C   0  0  0  0  0  0  0  0  0  0  0  0
    6.5433   -5.6069   -8.4850 C   0  0  0  0  0  0  0  0  0  0  0  0
    4.4007   -6.8229   -7.9210 C   0  0  0  0  0  0  0  0  0  0  0  0
    8.3775   -7.6405   -6.3424 C   0  0  0  0  0  0  0  0  0  0  0  0
    9.1249   -6.6577   -6.3334 O   0  0  0  0  0  0  0  0  0  0  0  0
    8.0306   -8.3061   -5.1724 N   0  0  0  0  0  0  0  0  0  0  0  0
    6.6425   -8.6378   -4.8629 C   0  0  0  0  0  0  0  0  0  0  0  0
    8.9213   -8.1535   -3.9980 C   0  0  1  0  0  0  0  0  0  0  0  0
   10.4606   -8.0649   -4.3256 C   0  0  0  0  0  0  0  0  0  0  0  0
   11.5759   -7.9890   -3.2420 C   0  0  0  0  0  0  0  0  0  0  0  0
   10.7187   -9.2415   -5.2447 C   0  0  0  0  0  0  0  0  0  0  0  0
    8.5585   -7.0138   -3.0816 C   0  0  0  0  0  0  0  0  0  0  0  0
    7.7637   -6.1174   -3.3345 O   0  0  0  0  0  0  0  0  0  0  0  0
    9.3985   -7.0441   -1.9724 N   0  0  0  0  0  0  0  0  0  0  0  0
    9.9604   -5.7203   -1.6010 C   0  0  0  0  0  0  0  0  0  0  0  0
    0.2324   -5.0170    3.2965 H   0  0  0  0  0  0  0  0  0  0  0  0
    1.8573   -4.9864    3.9746 H   0  0  0  0  0  0  0  0  0  0  0  0
    1.2463   -6.4532    3.1662 H   0  0  0  0  0  0  0  0  0  0  0  0
    1.7767   -3.7398    1.8453 H   0  0  0  0  0  0  0  0  0  0  0  0
    1.0256   -5.0970    1.0401 H   0  0  0  0  0  0  0  0  0  0  0  0
    3.3232   -4.9319    0.2320 H   0  0  0  0  0  0  0  0  0  0  0  0
    3.8450   -6.3251    2.8812 H   0  0  0  0  0  0  0  0  0  0  0  0
    5.5084   -7.6408    1.8007 H   0  0  0  0  0  0  0  0  0  0  0  0
    6.1725   -6.0652    2.2039 H   0  0  0  0  0  0  0  0  0  0  0  0
    5.6938   -7.0412   -0.6991 H   0  0  0  0  0  0  0  0  0  0  0  0
    7.1148   -4.5113    0.4271 H   0  0  0  0  0  0  0  0  0  0  0  0
    5.4451   -4.4941   -0.0734 H   0  0  0  0  0  0  0  0  0  0  0  0
    6.6793   -4.8110   -1.2669 H   0  0  0  0  0  0  0  0  0  0  0  0
    8.1711   -6.4133   -0.3884 H   0  0  0  0  0  0  0  0  0  0  0  0
    8.4566   -6.0162    1.4829 H   0  0  0  0  0  0  0  0  0  0  0  0
   10.0696   -8.0746   -0.2733 H   0  0  0  0  0  0  0  0  0  0  0  0
   11.6670  -10.2555   -1.2699 H   0  0  0  0  0  0  0  0  0  0  0  0
   10.7538  -12.0800   -3.5780 H   0  0  0  0  0  0  0  0  0  0  0  0
   12.3083  -10.0571   -3.9971 H   0  0  0  0  0  0  0  0  0  0  0  0
   12.6358  -11.4409   -4.7456 H   0  0  0  0  0  0  0  0  0  0  0  0
   13.7815  -10.1332   -2.1450 H   0  0  0  0  0  0  0  0  0  0  0  0
   14.6359  -10.2384   -3.6749 H   0  0  0  0  0  0  0  0  0  0  0  0
   14.4319  -11.6896   -2.6685 H   0  0  0  0  0  0  0  0  0  0  0  0
   14.2343  -11.6638   -5.2685 H   0  0  0  0  0  0  0  0  0  0  0  0
   14.7582  -12.9131   -6.2463 H   0  0  0  0  0  0  0  0  0  0  0  0
   15.4824  -12.7338   -4.6510 H   0  0  0  0  0  0  0  0  0  0  0  0
   15.3728  -14.7666   -5.3990 H   0  0  0  0  0  0  0  0  0  0  0  0
   15.2766  -17.0675   -5.1014 H   0  0  0  0  0  0  0  0  0  0  0  0
   13.8529  -16.9401   -4.1155 H   0  0  0  0  0  0  0  0  0  0  0  0
   14.3264  -16.1475   -1.8381 H   0  0  0  0  0  0  0  0  0  0  0  0
   16.0119  -15.9009   -0.0537 H   0  0  0  0  0  0  0  0  0  0  0  0
   18.4346  -15.8228   -0.6135 H   0  0  0  0  0  0  0  0  0  0  0  0
   19.1589  -16.0020   -2.9785 H   0  0  0  0  0  0  0  0  0  0  0  0
   17.4919  -16.2547   -4.7645 H   0  0  0  0  0  0  0  0  0  0  0  0
   14.4003  -18.2862   -6.1026 H   0  0  0  0  0  0  0  0  0  0  0  0
   15.8255  -18.3030   -7.2105 H   0  0  0  0  0  0  0  0  0  0  0  0
   14.2342  -18.9247   -7.6795 H   0  0  0  0  0  0  0  0  0  0  0  0
   14.1842  -15.8701   -9.5705 H   0  0  0  0  0  0  0  0  0  0  0  0
   12.5742  -17.5304  -10.5166 H   0  0  0  0  0  0  0  0  0  0  0  0
   12.5944  -18.4371   -9.0301 H   0  0  0  0  0  0  0  0  0  0  0  0
   11.7805  -15.5159   -9.1853 H   0  0  0  0  0  0  0  0  0  0  0  0
    9.8512  -17.8646   -9.0470 H   0  0  0  0  0  0  0  0  0  0  0  0
   10.2784  -17.0520  -10.5684 H   0  0  0  0  0  0  0  0  0  0  0  0
    9.4889  -16.1470   -9.2689 H   0  0  0  0  0  0  0  0  0  0  0  0
   11.3336  -17.6755   -7.0263 H   0  0  0  0  0  0  0  0  0  0  0  0
   10.5239  -16.1088   -7.0304 H   0  0  0  0  0  0  0  0  0  0  0  0
   12.2237  -16.1805   -6.8106 H   0  0  0  0  0  0  0  0  0  0  0  0
   16.1599  -18.1658  -11.6676 H   0  0  0  0  0  0  0  0  0  0  0  0
   16.6115  -16.2931  -12.6466 H   0  0  0  0  0  0  0  0  0  0  0  0
   15.9130  -14.9149  -10.0271 H   0  0  0  0  0  0  0  0  0  0  0  0
   17.4802  -13.7949  -12.3881 H   0  0  0  0  0  0  0  0  0  0  0  0
   17.2208  -13.0257  -10.8110 H   0  0  0  0  0  0  0  0  0  0  0  0
   15.8538  -13.2852  -11.8931 H   0  0  0  0  0  0  0  0  0  0  0  0
   18.6257  -15.7547  -11.1566 H   0  0  0  0  0  0  0  0  0  0  0  0
   17.7640  -16.6051   -9.8645 H   0  0  0  0  0  0  0  0  0  0  0  0
   18.3120  -14.9515   -9.6080 H   0  0  0  0  0  0  0  0  0  0  0  0
   16.3809  -15.9728  -14.4994 H   0  0  0  0  0  0  0  0  0  0  0  0
   15.7831  -14.3891  -14.9400 H   0  0  0  0  0  0  0  0  0  0  0  0
   15.1879  -15.8549  -15.7842 H   0  0  0  0  0  0  0  0  0  0  0  0
   12.3356  -15.0993  -13.5257 H   0  0  0  0  0  0  0  0  0  0  0  0
   11.5018  -15.5374  -15.7737 H   0  0  0  0  0  0  0  0  0  0  0  0
   13.0893  -15.9766  -16.3318 H   0  0  0  0  0  0  0  0  0  0  0  0
   13.1508  -17.9311  -14.8378 H   0  0  0  0  0  0  0  0  0  0  0  0
   10.4234  -16.9816  -13.8069 H   0  0  0  0  0  0  0  0  0  0  0  0
   11.9046  -17.2127  -12.8602 H   0  0  0  0  0  0  0  0  0  0  0  0
   11.0831  -18.6054  -13.5477 H   0  0  0  0  0  0  0  0  0  0  0  0
   10.4975  -17.7119  -16.3589 H   0  0  0  0  0  0  0  0  0  0  0  0
   11.3144  -19.2177  -15.9082 H   0  0  0  0  0  0  0  0  0  0  0  0
   12.0670  -18.1184  -17.0746 H   0  0  0  0  0  0  0  0  0  0  0  0
   12.4634  -11.7379  -14.7332 H   0  0  0  0  0  0  0  0  0  0  0  0
   11.8350  -13.4742  -12.4061 H   0  0  0  0  0  0  0  0  0  0  0  0
   11.1018  -10.5630  -12.9655 H   0  0  0  0  0  0  0  0  0  0  0  0
   12.5463  -11.0953  -12.1087 H   0  0  0  0  0  0  0  0  0  0  0  0
   10.9748  -11.4489  -11.4367 H   0  0  0  0  0  0  0  0  0  0  0  0
    8.3914  -13.8934  -13.3028 H   0  0  0  0  0  0  0  0  0  0  0  0
    7.1002  -12.3879  -12.6952 H   0  0  0  0  0  0  0  0  0  0  0  0
    9.2281  -10.7191  -14.0385 H   0  0  0  0  0  0  0  0  0  0  0  0
    7.7148  -10.0230  -13.4568 H   0  0  0  0  0  0  0  0  0  0  0  0
    7.7003  -11.3328  -14.6493 H   0  0  0  0  0  0  0  0  0  0  0  0
    6.0057  -12.7693  -11.1298 H   0  0  0  0  0  0  0  0  0  0  0  0
    5.7851  -11.6769   -9.7608 H   0  0  0  0  0  0  0  0  0  0  0  0
    6.2403  -13.3870   -9.4916 H   0  0  0  0  0  0  0  0  0  0  0  0
    7.8952  -12.7794   -8.2207 H   0  0  0  0  0  0  0  0  0  0  0  0
   10.4362  -12.0434   -9.5799 H   0  0  0  0  0  0  0  0  0  0  0  0
    9.8090  -13.5787   -9.1526 H   0  0  0  0  0  0  0  0  0  0  0  0
   10.5304  -11.4505   -7.0613 H   0  0  0  0  0  0  0  0  0  0  0  0
    9.5669  -14.3123   -6.8828 H   0  0  0  0  0  0  0  0  0  0  0  0
    9.0438  -12.9021   -5.9810 H   0  0  0  0  0  0  0  0  0  0  0  0
   10.6125  -13.6286   -5.6239 H   0  0  0  0  0  0  0  0  0  0  0  0
   12.1273  -13.7187   -8.2702 H   0  0  0  0  0  0  0  0  0  0  0  0
   12.5432  -12.8756   -6.7792 H   0  0  0  0  0  0  0  0  0  0  0  0
   12.5003  -11.9988   -8.3054 H   0  0  0  0  0  0  0  0  0  0  0  0
   10.4677  -10.1773   -9.1210 H   0  0  0  0  0  0  0  0  0  0  0  0
   10.6993   -9.0186   -7.8533 H   0  0  0  0  0  0  0  0  0  0  0  0
   10.0669   -8.4854   -9.3995 H   0  0  0  0  0  0  0  0  0  0  0  0
    8.4548   -7.4974   -8.4070 H   0  0  0  0  0  0  0  0  0  0  0  0
    5.9141   -8.9080   -7.6473 H   0  0  0  0  0  0  0  0  0  0  0  0
    6.4185   -8.2745   -9.1788 H   0  0  0  0  0  0  0  0  0  0  0  0
    6.0669   -6.5612   -6.6447 H   0  0  0  0  0  0  0  0  0  0  0  0
    6.4929   -5.7797   -9.5640 H   0  0  0  0  0  0  0  0  0  0  0  0
    7.5970   -5.4776   -8.2161 H   0  0  0  0  0  0  0  0  0  0  0  0
    6.0431   -4.6621   -8.2556 H   0  0  0  0  0  0  0  0  0  0  0  0
    4.1594   -7.1019   -8.9509 H   0  0  0  0  0  0  0  0  0  0  0  0
    3.9331   -5.8614   -7.6944 H   0  0  0  0  0  0  0  0  0  0  0  0
    3.9615   -7.5745   -7.2542 H   0  0  0  0  0  0  0  0  0  0  0  0
    6.1595   -9.1704   -5.6730 H   0  0  0  0  0  0  0  0  0  0  0  0
    6.0863   -7.7132   -4.6754 H   0  0  0  0  0  0  0  0  0  0  0  0
    6.5840   -9.2669   -3.9686 H   0  0  0  0  0  0  0  0  0  0  0  0
    8.7308   -9.0724   -3.4592 H   0  0  0  0  0  0  0  0  0  0  0  0
   10.6286   -7.1260   -4.8543 H   0  0  0  0  0  0  0  0  0  0  0  0
   11.4233   -7.4705   -2.3133 H   0  0  0  0  0  0  0  0  0  0  0  0
   11.8561   -8.9276   -2.8198 H   0  0  0  0  0  0  0  0  0  0  0  0
   12.4790   -7.5416   -3.6623 H   0  0  0  0  0  0  0  0  0  0  0  0
   10.5006  -10.1776   -4.7277 H   0  0  0  0  0  0  0  0  0  0  0  0
   11.7228   -9.2062   -5.6699 H   0  0  0  0  0  0  0  0  0  0  0  0
   10.0338   -9.2908   -6.0680 H   0  0  0  0  0  0  0  0  0  0  0  0
   11.0063   -5.6634   -1.9146 H   0  0  0  0  0  0  0  0  0  0  0  0
    9.9340   -5.5300   -0.5287 H   0  0  0  0  0  0  0  0  0  0  0  0
    9.4544   -4.9104   -2.1396 H   0  0  0  0  0  0  0  0  0  0  0  0
  1  2  1  0  0  0  0
  1 94  1  0  0  0  0
  1 95  1  0  0  0  0
  1 96  1  0  0  0  0
  2  3  1  0  0  0  0
  2 97  1  0  0  0  0
  2 98  1  0  0  0  0
  3  4  2  0  0  0  0
  3 99  1  0  0  0  0
  4  5  1  0  0  0  0
  4100  1  0  0  0  0
  5  6  1  0  0  0  0
  5101  1  0  0  0  0
  5102  1  0  0  0  0
  6  7  1  0  0  0  0
  6  8  1  0  0  0  0
  6103  1  6  0  0  0
  7104  1  0  0  0  0
  7105  1  0  0  0  0
  7106  1  0  0  0  0
  8  9  1  0  0  0  0
  8 10  1  0  0  0  0
  8107  1  6  0  0  0
  9108  1  0  0  0  0
 10 11  1  0  0  0  0
 10 92  1  0  0  0  0
 10109  1  1  0  0  0
 11 12  2  0  0  0  0
 11 13  1  0  0  0  0
 13 14  1  0  0  0  0
 13110  1  0  0  0  0
 14 15  1  0  0  0  0
 14 17  1  0  0  0  0
 14111  1  6  0  0  0
 15 16  1  0  0  0  0
 15112  1  0  0  0  0
 15113  1  0  0  0  0
 16114  1  0  0  0  0
 16115  1  0  0  0  0
 16116  1  0  0  0  0
 17 18  2  0  0  0  0
 17 19  1  0  0  0  0
 19 20  1  0  0  0  0
 19 21  1  0  0  0  0
 20117  1  0  0  0  0
 20118  1  0  0  0  0
 20119  1  0  0  0  0
 21 22  1  0  0  0  0
 21 29  1  0  0  0  0
 21120  1  1  0  0  0
 22 23  1  0  0  0  0
 22121  1  0  0  0  0
 22122  1  0  0  0  0
 23 24  1  0  0  0  0
 23 28  2  0  0  0  0
 24 25  2  0  0  0  0
 24123  1  0  0  0  0
 25 26  1  0  0  0  0
 25124  1  0  0  0  0
 26 27  2  0  0  0  0
 26125  1  0  0  0  0
 27 28  1  0  0  0  0
 27126  1  0  0  0  0
 28127  1  0  0  0  0
 29 30  2  0  0  0  0
 29 31  1  0  0  0  0
 31 32  1  0  0  0  0
 31 33  1  0  0  0  0
 32128  1  0  0  0  0
 32129  1  0  0  0  0
 32130  1  0  0  0  0
 33 38  1  0  0  0  0
 33 34  1  0  0  0  0
 33131  1  6  0  0  0
 34 35  1  0  0  0  0
 34132  1  0  0  0  0
 34133  1  0  0  0  0
 35 36  1  0  0  0  0
 35 37  1  0  0  0  0
 35134  1  0  0  0  0
 36135  1  0  0  0  0
 36136  1  0  0  0  0
 36137  1  0  0  0  0
 37138  1  0  0  0  0
 37139  1  0  0  0  0
 37140  1  0  0  0  0
 38 39  2  0  0  0  0
 38 40  1  0  0  0  0
 40 41  1  0  0  0  0
 40141  1  0  0  0  0
 41 45  1  0  0  0  0
 41 42  1  0  0  0  0
 41142  1  6  0  0  0
 42 43  1  0  0  0  0
 42 44  1  0  0  0  0
 42143  1  0  0  0  0
 43144  1  0  0  0  0
 43145  1  0  0  0  0
 43146  1  0  0  0  0
 44147  1  0  0  0  0
 44148  1  0  0  0  0
 44149  1  0  0  0  0
 45 46  2  0  0  0  0
 45 47  1  0  0  0  0
 47 48  1  0  0  0  0
 47 49  1  0  0  0  0
 48150  1  0  0  0  0
 48151  1  0  0  0  0
 48152  1  0  0  0  0
 49 54  1  0  0  0  0
 49 50  1  0  0  0  0
 49153  1  1  0  0  0
 50 51  1  0  0  0  0
 50154  1  0  0  0  0
 50155  1  0  0  0  0
 51 52  1  0  0  0  0
 51 53  1  0  0  0  0
 51156  1  0  0  0  0
 52157  1  0  0  0  0
 52158  1  0  0  0  0
 52159  1  0  0  0  0
 53160  1  0  0  0  0
 53161  1  0  0  0  0
 53162  1  0  0  0  0
 54 55  2  0  0  0  0
 54 56  1  0  0  0  0
 56 57  1  0  0  0  0
 56163  1  0  0  0  0
 57 58  1  0  0  0  0
 57 59  1  0  0  0  0
 57164  1  1  0  0  0
 58165  1  0  0  0  0
 58166  1  0  0  0  0
 58167  1  0  0  0  0
 59 60  2  0  0  0  0
 59 61  1  0  0  0  0
 61 62  1  0  0  0  0
 61168  1  0  0  0  0
 62 64  1  0  0  0  0
 62 63  1  0  0  0  0
 62169  1  6  0  0  0
 63170  1  0  0  0  0
 63171  1  0  0  0  0
 63172  1  0  0  0  0
 64 65  2  0  0  0  0
 64 66  1  0  0  0  0
 66 67  1  0  0  0  0
 66 68  1  0  0  0  0
 67173  1  0  0  0  0
 67174  1  0  0  0  0
 67175  1  0  0  0  0
 68 69  1  0  0  0  0
 68 73  1  0  0  0  0
 68176  1  1  0  0  0
 69 70  1  0  0  0  0
 69177  1  0  0  0  0
 69178  1  0  0  0  0
 70 71  1  0  0  0  0
 70 72  1  0  0  0  0
 70179  1  0  0  0  0
 71180  1  0  0  0  0
 71181  1  0  0  0  0
 71182  1  0  0  0  0
 72183  1  0  0  0  0
 72184  1  0  0  0  0
 72185  1  0  0  0  0
 73 74  2  0  0  0  0
 73 75  1  0  0  0  0
 75 76  1  0  0  0  0
 75 77  1  0  0  0  0
 76186  1  0  0  0  0
 76187  1  0  0  0  0
 76188  1  0  0  0  0
 77 78  1  0  0  0  0
 77 82  1  0  0  0  0
 77189  1  6  0  0  0
 78 79  1  0  0  0  0
 78190  1  0  0  0  0
 78191  1  0  0  0  0
 79 80  1  0  0  0  0
 79 81  1  0  0  0  0
 79192  1  0  0  0  0
 80193  1  0  0  0  0
 80194  1  0  0  0  0
 80195  1  0  0  0  0
 81196  1  0  0  0  0
 81197  1  0  0  0  0
 81198  1  0  0  0  0
 82 83  2  0  0  0  0
 82 84  1  0  0  0  0
 84 85  1  0  0  0  0
 84 86  1  0  0  0  0
 85199  1  0  0  0  0
 85200  1  0  0  0  0
 85201  1  0  0  0  0
 86 87  1  0  0  0  0
 86 90  1  0  0  0  0
 86202  1  1  0  0  0
 87 88  1  0  0  0  0
 87 89  1  0  0  0  0
 87203  1  0  0  0  0
 88204  1  0  0  0  0
 88205  1  0  0  0  0
 88206  1  0  0  0  0
 89207  1  0  0  0  0
 89208  1  0  0  0  0
 89209  1  0  0  0  0
 90 91  2  0  0  0  0
 90 92  1  0  0  0  0
 92 93  1  0  0  0  0
 93210  1  0  0  0  0
 93211  1  0  0  0  0
 93212  1  0  0  0  0
M  END
>  <Energy>
882.407

$$$$