54
 OpenBabel03292021483D

196196  0  0  1  0  0  0  0  0999 V2000
    4.2549    5.1309   -2.0855 C   0  0  0  0  0  0  0  0  0  0  0  0
    4.1875    6.5764   -1.5689 C   0  0  0  0  0  0  0  0  0  0  0  0
    5.3023    7.1775   -0.6750 C   0  0  0  0  0  0  0  0  0  0  0  0
    6.4566    6.5941   -0.2788 C   0  0  0  0  0  0  0  0  0  0  0  0
    7.7616    7.1387    0.3861 C   0  0  0  0  0  0  0  0  0  0  0  0
    8.0807    7.8967    1.8308 C   0  0  1  0  0  0  0  0  0  0  0  0
    8.5052    6.7135    2.7256 C   0  0  0  0  0  0  0  0  0  0  0  0
    9.2486    9.1299    1.7558 C   0  0  1  0  0  0  0  0  0  0  0  0
    8.8095   10.1256    0.8296 O   0  0  0  0  0  0  0  0  0  0  0  0
   10.2722    9.8388    2.9794 C   0  0  1  0  0  0  0  0  0  0  0  0
   10.3895   11.4024    3.7647 C   0  0  0  0  0  0  0  0  0  0  0  0
    9.5333   12.2699    3.6441 O   0  0  0  0  0  0  0  0  0  0  0  0
   11.6313   11.6936    4.4976 N   0  0  0  0  0  0  0  0  0  0  0  0
   12.0622   13.0285    5.3595 C   0  0  1  0  0  0  0  0  0  0  0  0
   12.1282   14.2770    4.4545 C   0  0  0  0  0  0  0  0  0  0  0  0
   12.1162   15.6319    5.1804 C   0  0  0  0  0  0  0  0  0  0  0  0
   13.2563   12.8880    6.6005 C   0  0  0  0  0  0  0  0  0  0  0  0
   13.0915   11.9213    7.3687 O   0  0  0  0  0  0  0  0  0  0  0  0
   14.3429   13.8018    6.9032 N   0  0  0  0  0  0  0  0  0  0  0  0
   15.0541   14.5454    5.8695 C   0  0  0  0  0  0  0  0  0  0  0  0
   15.2764   13.5382    8.0960 C   0  0  0  0  0  0  0  0  0  0  0  0
   15.7547   14.2644    9.5007 C   0  0  0  0  0  0  0  0  0  0  0  0
   16.7754   13.8134   10.0505 O   0  0  0  0  0  0  0  0  0  0  0  0
   14.9158   15.0863   10.2480 N   0  0  0  0  0  0  0  0  0  0  0  0
   14.1413   16.1236    9.6028 C   0  0  0  0  0  0  0  0  0  0  0  0
   14.7955   14.9635   11.7816 C   0  0  1  0  0  0  0  0  0  0  0  0
   14.4003   13.5500   12.2286 C   0  0  0  0  0  0  0  0  0  0  0  0
   13.3099   13.5559   13.2946 C   0  0  0  0  0  0  0  0  0  0  0  0
   13.8878   12.6907   11.1126 C   0  0  0  0  0  0  0  0  0  0  0  0
   15.8476   15.7355   12.6798 C   0  0  0  0  0  0  0  0  0  0  0  0
   16.1660   16.8867   12.3275 O   0  0  0  0  0  0  0  0  0  0  0  0
   16.3543   15.3776   13.9022 N   0  0  0  0  0  0  0  0  0  0  0  0
   16.5473   14.1353   14.7587 C   0  0  2  0  0  0  0  0  0  0  0  0
   17.3481   13.0953   13.9259 C   0  0  0  0  0  0  0  0  0  0  0  0
   17.3027   11.6438   14.3782 C   0  0  0  0  0  0  0  0  0  0  0  0
   18.8141   13.5402   13.7643 C   0  0  0  0  0  0  0  0  0  0  0  0
   15.2345   13.8866   15.6286 C   0  0  0  0  0  0  0  0  0  0  0  0
   14.4153   14.8112   15.7016 O   0  0  0  0  0  0  0  0  0  0  0  0
   15.0120   12.7439   16.4003 N   0  0  0  0  0  0  0  0  0  0  0  0
   16.0863   12.2192   17.2365 C   0  0  0  0  0  0  0  0  0  0  0  0
   13.5887   12.3706   16.7848 C   0  0  2  0  0  0  0  0  0  0  0  0
   13.0243   13.0543   18.0667 C   0  0  0  0  0  0  0  0  0  0  0  0
   12.5328   14.5146   17.9703 C   0  0  0  0  0  0  0  0  0  0  0  0
   11.5066   14.7497   16.8589 C   0  0  0  0  0  0  0  0  0  0  0  0
   11.9036   14.9399   19.3049 C   0  0  0  0  0  0  0  0  0  0  0  0
   13.4035   10.8332   17.0175 C   0  0  0  0  0  0  0  0  0  0  0  0
   14.0763   10.2342   17.8667 O   0  0  0  0  0  0  0  0  0  0  0  0
   12.4894   10.0796   16.3396 N   0  0  0  0  0  0  0  0  0  0  0  0
   11.4830   10.3937   15.3016 C   0  0  1  0  0  0  0  0  0  0  0  0
   11.5036    9.2602   14.2952 C   0  0  0  0  0  0  0  0  0  0  0  0
   10.1075   10.7183   15.9672 C   0  0  0  0  0  0  0  0  0  0  0  0
   10.0768   11.2170   17.0978 O   0  0  0  0  0  0  0  0  0  0  0  0
    8.9130   10.7514   15.2871 N   0  0  0  0  0  0  0  0  0  0  0  0
    8.0812    9.6009   14.8376 C   0  0  2  0  0  0  0  0  0  0  0  0
    8.2759    8.3483   15.6958 C   0  0  0  0  0  0  0  0  0  0  0  0
    8.1388    9.2410   13.3220 C   0  0  0  0  0  0  0  0  0  0  0  0
    8.8433    8.3204   12.9777 O   0  0  0  0  0  0  0  0  0  0  0  0
    7.4641   10.0655   12.4074 N   0  0  0  0  0  0  0  0  0  0  0  0
    6.0792   10.4563   12.6380 C   0  0  0  0  0  0  0  0  0  0  0  0
    7.8643   10.1167   10.9714 C   0  0  1  0  0  0  0  0  0  0  0  0
    9.3046   10.4200   10.7294 C   0  0  0  0  0  0  0  0  0  0  0  0
    9.9564   11.7357   11.0325 C   0  0  0  0  0  0  0  0  0  0  0  0
    9.5838   12.4066   12.3431 C   0  0  0  0  0  0  0  0  0  0  0  0
   11.4195   11.3211   11.0201 C   0  0  0  0  0  0  0  0  0  0  0  0
    7.4415    8.9116   10.0776 C   0  0  0  0  0  0  0  0  0  0  0  0
    6.3249    9.0103    9.5474 O   0  0  0  0  0  0  0  0  0  0  0  0
    8.2302    7.7615    9.9311 N   0  0  0  0  0  0  0  0  0  0  0  0
    9.6766    7.6474   10.1784 C   0  0  0  0  0  0  0  0  0  0  0  0
    7.7118    6.5701    9.2320 C   0  0  1  0  0  0  0  0  0  0  0  0
    6.2036    6.3314    9.3008 C   0  0  0  0  0  0  0  0  0  0  0  0
    5.7457    4.9615    8.7894 C   0  0  0  0  0  0  0  0  0  0  0  0
    6.3537    3.8028    9.5784 C   0  0  0  0  0  0  0  0  0  0  0  0
    4.2188    4.9097    8.8659 C   0  0  0  0  0  0  0  0  0  0  0  0
    8.5139    6.2725    7.9094 C   0  0  0  0  0  0  0  0  0  0  0  0
    9.2598    5.2900    7.9365 O   0  0  0  0  0  0  0  0  0  0  0  0
    8.5237    7.1522    6.8344 N   0  0  0  0  0  0  0  0  0  0  0  0
    7.2439    7.7170    6.4400 C   0  0  0  0  0  0  0  0  0  0  0  0
    9.8163    7.7658    6.2912 C   0  0  1  0  0  0  0  0  0  0  0  0
   11.1188    6.9092    6.3305 C   0  0  0  0  0  0  0  0  0  0  0  0
   11.9082    6.9766    7.6383 C   0  0  0  0  0  0  0  0  0  0  0  0
   11.0098    5.4830    5.7826 C   0  0  0  0  0  0  0  0  0  0  0  0
    9.6606    8.6612    4.9705 C   0  0  0  0  0  0  0  0  0  0  0  0
    8.6341    9.3514    4.8536 O   0  0  0  0  0  0  0  0  0  0  0  0
   10.6349    8.8239    3.9756 N   0  0  0  0  0  0  0  0  0  0  0  0
   11.6240    7.8599    3.4992 C   0  0  0  0  0  0  0  0  0  0  0  0
    3.4130    4.9373   -2.7693 H   0  0  0  0  0  0  0  0  0  0  0  0
    4.1745    4.4023   -1.2734 H   0  0  0  0  0  0  0  0  0  0  0  0
    5.1709    4.9320   -2.6495 H   0  0  0  0  0  0  0  0  0  0  0  0
    3.2283    6.6840   -1.0497 H   0  0  0  0  0  0  0  0  0  0  0  0
    4.1147    7.2111   -2.4658 H   0  0  0  0  0  0  0  0  0  0  0  0
    5.1173    8.2249   -0.4253 H   0  0  0  0  0  0  0  0  0  0  0  0
    6.5682    5.5721   -0.6170 H   0  0  0  0  0  0  0  0  0  0  0  0
    8.3804    7.5797   -0.4061 H   0  0  0  0  0  0  0  0  0  0  0  0
    8.2467    6.1577    0.5186 H   0  0  0  0  0  0  0  0  0  0  0  0
    7.1436    8.3319    2.1943 H   0  0  0  0  0  0  0  0  0  0  0  0
    9.4261    6.2526    2.3450 H   0  0  0  0  0  0  0  0  0  0  0  0
    7.7379    5.9286    2.7379 H   0  0  0  0  0  0  0  0  0  0  0  0
    8.6646    6.9697    3.7612 H   0  0  0  0  0  0  0  0  0  0  0  0
   10.0169    8.5795    1.1897 H   0  0  0  0  0  0  0  0  0  0  0  0
    8.5187    9.6742    0.0170 H   0  0  0  0  0  0  0  0  0  0  0  0
   11.1727    9.9994    2.3582 H   0  0  0  0  0  0  0  0  0  0  0  0
   12.3073   10.9488    4.5427 H   0  0  0  0  0  0  0  0  0  0  0  0
   11.1551   13.1775    5.9650 H   0  0  0  0  0  0  0  0  0  0  0  0
   12.9794   14.2103    3.7708 H   0  0  0  0  0  0  0  0  0  0  0  0
   11.2487   14.2830    3.8019 H   0  0  0  0  0  0  0  0  0  0  0  0
   12.1510   16.4476    4.4480 H   0  0  0  0  0  0  0  0  0  0  0  0
   12.9580   15.7939    5.8529 H   0  0  0  0  0  0  0  0  0  0  0  0
   11.2120   15.7580    5.7816 H   0  0  0  0  0  0  0  0  0  0  0  0
   15.2343   15.5669    6.2192 H   0  0  0  0  0  0  0  0  0  0  0  0
   14.5602   14.5429    4.9115 H   0  0  0  0  0  0  0  0  0  0  0  0
   16.0277   14.0711    5.6869 H   0  0  0  0  0  0  0  0  0  0  0  0
   16.2650   13.4149    7.6250 H   0  0  0  0  0  0  0  0  0  0  0  0
   15.0437   12.5179    8.4100 H   0  0  0  0  0  0  0  0  0  0  0  0
   13.1442   15.7346    9.3905 H   0  0  0  0  0  0  0  0  0  0  0  0
   14.6297   16.4301    8.6750 H   0  0  0  0  0  0  0  0  0  0  0  0
   14.0650   16.9971   10.2615 H   0  0  0  0  0  0  0  0  0  0  0  0
   13.8918   15.5643   11.9850 H   0  0  0  0  0  0  0  0  0  0  0  0
   15.2393   13.0093   12.6266 H   0  0  0  0  0  0  0  0  0  0  0  0
   12.3025   13.5075   12.8847 H   0  0  0  0  0  0  0  0  0  0  0  0
   13.3189   14.4623   13.8891 H   0  0  0  0  0  0  0  0  0  0  0  0
   13.4440   12.6740   13.9248 H   0  0  0  0  0  0  0  0  0  0  0  0
   12.9933   13.1717   10.7032 H   0  0  0  0  0  0  0  0  0  0  0  0
   13.7360   11.6803   11.4907 H   0  0  0  0  0  0  0  0  0  0  0  0
   14.5720   12.5128   10.3068 H   0  0  0  0  0  0  0  0  0  0  0  0
   16.8420   16.1782   14.2874 H   0  0  0  0  0  0  0  0  0  0  0  0
   17.2436   14.4840   15.5386 H   0  0  0  0  0  0  0  0  0  0  0  0
   17.0038   13.1049   12.8937 H   0  0  0  0  0  0  0  0  0  0  0  0
   17.8754   11.4858   15.2958 H   0  0  0  0  0  0  0  0  0  0  0  0
   17.7541   11.0010   13.6127 H   0  0  0  0  0  0  0  0  0  0  0  0
   16.2768   11.2930   14.5138 H   0  0  0  0  0  0  0  0  0  0  0  0
   19.3577   13.4977   14.7120 H   0  0  0  0  0  0  0  0  0  0  0  0
   18.8747   14.5630   13.3758 H   0  0  0  0  0  0  0  0  0  0  0  0
   19.3279   12.8952   13.0418 H   0  0  0  0  0  0  0  0  0  0  0  0
   17.0353   12.7155   17.0287 H   0  0  0  0  0  0  0  0  0  0  0  0
   16.1966   11.1468   17.0631 H   0  0  0  0  0  0  0  0  0  0  0  0
   15.8518   12.3973   18.2902 H   0  0  0  0  0  0  0  0  0  0  0  0
   12.9539   12.6485   15.9497 H   0  0  0  0  0  0  0  0  0  0  0  0
   12.1701   12.4589   18.4212 H   0  0  0  0  0  0  0  0  0  0  0  0
   13.7673   12.9907   18.8715 H   0  0  0  0  0  0  0  0  0  0  0  0
   13.3962   15.1670   17.8089 H   0  0  0  0  0  0  0  0  0  0  0  0
   10.6002   14.1574   17.0206 H   0  0  0  0  0  0  0  0  0  0  0  0
   11.8952   14.5007   15.8703 H   0  0  0  0  0  0  0  0  0  0  0  0
   11.2166   15.8061   16.8261 H   0  0  0  0  0  0  0  0  0  0  0  0
   10.9891   14.3720   19.5117 H   0  0  0  0  0  0  0  0  0  0  0  0
   11.6386   16.0029   19.2850 H   0  0  0  0  0  0  0  0  0  0  0  0
   12.5966   14.7832   20.1372 H   0  0  0  0  0  0  0  0  0  0  0  0
   12.4409    9.1450   16.7348 H   0  0  0  0  0  0  0  0  0  0  0  0
   11.7991   11.3084   14.7932 H   0  0  0  0  0  0  0  0  0  0  0  0
   11.1409    8.3222   14.7234 H   0  0  0  0  0  0  0  0  0  0  0  0
   12.5262    9.0694   13.9457 H   0  0  0  0  0  0  0  0  0  0  0  0
   10.9090    9.5062   13.4192 H   0  0  0  0  0  0  0  0  0  0  0  0
    8.3261   11.3391   15.8716 H   0  0  0  0  0  0  0  0  0  0  0  0
    7.0617    9.9230   15.0539 H   0  0  0  0  0  0  0  0  0  0  0  0
    9.3254    8.0670   15.8032 H   0  0  0  0  0  0  0  0  0  0  0  0
    7.7493    7.4905   15.2630 H   0  0  0  0  0  0  0  0  0  0  0  0
    7.8794    8.5127   16.7026 H   0  0  0  0  0  0  0  0  0  0  0  0
    5.7823   10.4063   13.6826 H   0  0  0  0  0  0  0  0  0  0  0  0
    5.4329    9.7701   12.0804 H   0  0  0  0  0  0  0  0  0  0  0  0
    5.9235   11.4755   12.2725 H   0  0  0  0  0  0  0  0  0  0  0  0
    7.3278   10.9811   10.5476 H   0  0  0  0  0  0  0  0  0  0  0  0
    9.5313   10.2319    9.6709 H   0  0  0  0  0  0  0  0  0  0  0  0
    9.8379    9.7112   11.3464 H   0  0  0  0  0  0  0  0  0  0  0  0
    9.7682   12.4507   10.2235 H   0  0  0  0  0  0  0  0  0  0  0  0
    9.8748   11.7903   13.1929 H   0  0  0  0  0  0  0  0  0  0  0  0
    8.5146   12.6197   12.4039 H   0  0  0  0  0  0  0  0  0  0  0  0
   10.1108   13.3609   12.4444 H   0  0  0  0  0  0  0  0  0  0  0  0
   11.6319   10.2425   10.9676 H   0  0  0  0  0  0  0  0  0  0  0  0
   11.8760   11.6268   11.9573 H   0  0  0  0  0  0  0  0  0  0  0  0
   11.8788   11.7061   10.1109 H   0  0  0  0  0  0  0  0  0  0  0  0
    9.9725    7.8759   11.1914 H   0  0  0  0  0  0  0  0  0  0  0  0
   10.2111    8.2816    9.4692 H   0  0  0  0  0  0  0  0  0  0  0  0
   10.0232    6.6212   10.0396 H   0  0  0  0  0  0  0  0  0  0  0  0
    8.0837    5.7801    9.9084 H   0  0  0  0  0  0  0  0  0  0  0  0
    5.6488    7.0901    8.7481 H   0  0  0  0  0  0  0  0  0  0  0  0
    5.8873    6.4416   10.3503 H   0  0  0  0  0  0  0  0  0  0  0  0
    6.0395    4.8600    7.7384 H   0  0  0  0  0  0  0  0  0  0  0  0
    6.1529    3.9027   10.6506 H   0  0  0  0  0  0  0  0  0  0  0  0
    7.4381    3.7484    9.4415 H   0  0  0  0  0  0  0  0  0  0  0  0
    5.9408    2.8476    9.2405 H   0  0  0  0  0  0  0  0  0  0  0  0
    3.8713    5.0103    9.9001 H   0  0  0  0  0  0  0  0  0  0  0  0
    3.8403    3.9657    8.4656 H   0  0  0  0  0  0  0  0  0  0  0  0
    3.7751    5.7249    8.2831 H   0  0  0  0  0  0  0  0  0  0  0  0
    6.4123    7.1705    6.8823 H   0  0  0  0  0  0  0  0  0  0  0  0
    7.1156    7.5872    5.3628 H   0  0  0  0  0  0  0  0  0  0  0  0
    7.1858    8.7634    6.7407 H   0  0  0  0  0  0  0  0  0  0  0  0
    9.9873    8.5667    7.0294 H   0  0  0  0  0  0  0  0  0  0  0  0
   11.8305    7.4229    5.6968 H   0  0  0  0  0  0  0  0  0  0  0  0
   11.4850    6.3529    8.4209 H   0  0  0  0  0  0  0  0  0  0  0  0
   11.9805    8.0131    7.9894 H   0  0  0  0  0  0  0  0  0  0  0  0
   12.9366    6.6350    7.4649 H   0  0  0  0  0  0  0  0  0  0  0  0
   11.0193    4.7264    6.5712 H   0  0  0  0  0  0  0  0  0  0  0  0
   11.8795    5.2533    5.1559 H   0  0  0  0  0  0  0  0  0  0  0  0
   10.1155    5.3436    5.1667 H   0  0  0  0  0  0  0  0  0  0  0  0
   12.5862    8.0646    3.9731 H   0  0  0  0  0  0  0  0  0  0  0  0
   11.7837    7.9609    2.4205 H   0  0  0  0  0  0  0  0  0  0  0  0
   11.2824    6.8420    3.6608 H   0  0  0  0  0  0  0  0  0  0  0  0
  1  2  1  0  0  0  0
  1 86  1  0  0  0  0
  1 87  1  0  0  0  0
  1 88  1  0  0  0  0
  2  3  1  0  0  0  0
  2 89  1  0  0  0  0
  2 90  1  0  0  0  0
  3  4  2  0  0  0  0
  3 91  1  0  0  0  0
  4  5  1  0  0  0  0
  4 92  1  0  0  0  0
  5  6  1  0  0  0  0
  5 93  1  0  0  0  0
  5 94  1  0  0  0  0
  6  7  1  0  0  0  0
  6  8  1  0  0  0  0
  6 95  1  1  0  0  0
  7 96  1  0  0  0  0
  7 97  1  0  0  0  0
  7 98  1  0  0  0  0
  8  9  1  0  0  0  0
  8 10  1  0  0  0  0
  8 99  1  6  0  0  0
  9100  1  0  0  0  0
 10 11  1  0  0  0  0
 10 84  1  0  0  0  0
 10101  1  6  0  0  0
 11 12  2  0  0  0  0
 11 13  1  0  0  0  0
 13 14  1  0  0  0  0
 13102  1  0  0  0  0
 14 15  1  0  0  0  0
 14 17  1  0  0  0  0
 14103  1  6  0  0  0
 15 16  1  0  0  0  0
 15104  1  0  0  0  0
 15105  1  0  0  0  0
 16106  1  0  0  0  0
 16107  1  0  0  0  0
 16108  1  0  0  0  0
 17 18  2  0  0  0  0
 17 19  1  0  0  0  0
 19 20  1  0  0  0  0
 19 21  1  0  0  0  0
 20109  1  0  0  0  0
 20110  1  0  0  0  0
 20111  1  0  0  0  0
 21 22  1  0  0  0  0
 21112  1  0  0  0  0
 21113  1  0  0  0  0
 22 23  2  0  0  0  0
 22 24  1  0  0  0  0
 24 25  1  0  0  0  0
 24 26  1  0  0  0  0
 25114  1  0  0  0  0
 25115  1  0  0  0  0
 25116  1  0  0  0  0
 26 27  1  0  0  0  0
 26 30  1  0  0  0  0
 26117  1  1  0  0  0
 27 28  1  0  0  0  0
 27 29  1  0  0  0  0
 27118  1  0  0  0  0
 28119  1  0  0  0  0
 28120  1  0  0  0  0
 28121  1  0  0  0  0
 29122  1  0  0  0  0
 29123  1  0  0  0  0
 29124  1  0  0  0  0
 30 31  2  0  0  0  0
 30 32  1  0  0  0  0
 32 33  1  0  0  0  0
 32125  1  0  0  0  0
 33 37  1  0  0  0  0
 33 34  1  0  0  0  0
 33126  1  1  0  0  0
 34 35  1  0  0  0  0
 34 36  1  0  0  0  0
 34127  1  0  0  0  0
 35128  1  0  0  0  0
 35129  1  0  0  0  0
 35130  1  0  0  0  0
 36131  1  0  0  0  0
 36132  1  0  0  0  0
 36133  1  0  0  0  0
 37 38  2  0  0  0  0
 37 39  1  0  0  0  0
 39 40  1  0  0  0  0
 39 41  1  0  0  0  0
 40134  1  0  0  0  0
 40135  1  0  0  0  0
 40136  1  0  0  0  0
 41 46  1  0  0  0  0
 41 42  1  0  0  0  0
 41137  1  6  0  0  0
 42 43  1  0  0  0  0
 42138  1  0  0  0  0
 42139  1  0  0  0  0
 43 44  1  0  0  0  0
 43 45  1  0  0  0  0
 43140  1  0  0  0  0
 44141  1  0  0  0  0
 44142  1  0  0  0  0
 44143  1  0  0  0  0
 45144  1  0  0  0  0
 45145  1  0  0  0  0
 45146  1  0  0  0  0
 46 47  2  0  0  0  0
 46 48  1  0  0  0  0
 48 49  1  0  0  0  0
 48147  1  0  0  0  0
 49 50  1  0  0  0  0
 49 51  1  0  0  0  0
 49148  1  6  0  0  0
 50149  1  0  0  0  0
 50150  1  0  0  0  0
 50151  1  0  0  0  0
 51 52  2  0  0  0  0
 51 53  1  0  0  0  0
 53 54  1  0  0  0  0
 53152  1  0  0  0  0
 54 56  1  0  0  0  0
 54 55  1  0  0  0  0
 54153  1  1  0  0  0
 55154  1  0  0  0  0
 55155  1  0  0  0  0
 55156  1  0  0  0  0
 56 57  2  0  0  0  0
 56 58  1  0  0  0  0
 58 59  1  0  0  0  0
 58 60  1  0  0  0  0
 59157  1  0  0  0  0
 59158  1  0  0  0  0
 59159  1  0  0  0  0
 60 61  1  0  0  0  0
 60 65  1  0  0  0  0
 60160  1  6  0  0  0
 61 62  1  0  0  0  0
 61161  1  0  0  0  0
 61162  1  0  0  0  0
 62 63  1  0  0  0  0
 62 64  1  0  0  0  0
 62163  1  0  0  0  0
 63164  1  0  0  0  0
 63165  1  0  0  0  0
 63166  1  0  0  0  0
 64167  1  0  0  0  0
 64168  1  0  0  0  0
 64169  1  0  0  0  0
 65 66  2  0  0  0  0
 65 67  1  0  0  0  0
 67 68  1  0  0  0  0
 67 69  1  0  0  0  0
 68170  1  0  0  0  0
 68171  1  0  0  0  0
 68172  1  0  0  0  0
 69 70  1  0  0  0  0
 69 74  1  0  0  0  0
 69173  1  1  0  0  0
 70 71  1  0  0  0  0
 70174  1  0  0  0  0
 70175  1  0  0  0  0
 71 72  1  0  0  0  0
 71 73  1  0  0  0  0
 71176  1  0  0  0  0
 72177  1  0  0  0  0
 72178  1  0  0  0  0
 72179  1  0  0  0  0
 73180  1  0  0  0  0
 73181  1  0  0  0  0
 73182  1  0  0  0  0
 74 75  2  0  0  0  0
 74 76  1  0  0  0  0
 76 77  1  0  0  0  0
 76 78  1  0  0  0  0
 77183  1  0  0  0  0
 77184  1  0  0  0  0
 77185  1  0  0  0  0
 78 79  1  0  0  0  0
 78 82  1  0  0  0  0
 78186  1  1  0  0  0
 79 80  1  0  0  0  0
 79 81  1  0  0  0  0
 79187  1  0  0  0  0
 80188  1  0  0  0  0
 80189  1  0  0  0  0
 80190  1  0  0  0  0
 81191  1  0  0  0  0
 81192  1  0  0  0  0
 81193  1  0  0  0  0
 82 83  2  0  0  0  0
 82 84  1  0  0  0  0
 84 85  1  0  0  0  0
 85194  1  0  0  0  0
 85195  1  0  0  0  0
 85196  1  0  0  0  0
M  END
>  <Energy>
642.309

$$$$