55
 OpenBabel03292021493D

171174  0  0  1  0  0  0  0  0999 V2000
    4.6804   -1.2210   -3.8670 C   0  0  0  0  0  0  0  0  0  0  0  0
    5.6102   -1.7910   -4.9219 C   0  0  0  0  0  0  0  0  0  0  0  0
    6.3561   -1.0297   -6.1065 C   0  0  2  0  0  0  0  0  0  0  0  0
    7.0047   -2.1713   -6.8595 C   0  0  0  0  0  0  0  0  0  0  0  0
    5.6280    0.1104   -7.0257 C   0  0  2  0  0  0  0  0  0  0  0  0
    6.2550    0.6584   -8.4230 N   0  0  0  0  0  0  0  0  0  0  0  0
    5.9000    0.2002   -9.6971 C   0  0  0  0  0  0  0  0  0  0  0  0
    5.3554   -0.9060   -9.6558 O   0  0  0  0  0  0  0  0  0  0  0  0
    6.0261    0.8976  -11.3530 C   0  0  2  0  0  0  0  0  0  0  0  0
    7.3082    1.6438  -11.7431 C   0  0  0  0  0  0  0  0  0  0  0  0
    6.9164    2.7929  -12.6714 C   0  0  0  0  0  0  0  0  0  0  0  0
    5.4845    3.0523  -12.2691 C   0  0  0  0  0  0  0  0  0  0  0  0
    5.0008    1.6872  -12.2201 N   0  0  0  0  0  0  0  0  0  0  0  0
    4.3445    1.3799  -13.4711 C   0  0  0  0  0  0  0  0  0  0  0  0
    3.6515    2.2474  -14.0222 O   0  0  0  0  0  0  0  0  0  0  0  0
    4.5125    0.0128  -14.2131 C   0  0  2  0  0  0  0  0  0  0  0  0
    3.9893   -0.0408  -15.6919 C   0  0  0  0  0  0  0  0  0  0  0  0
    4.8153    0.3029  -16.9193 C   0  0  0  0  0  0  0  0  0  0  0  0
    6.0113   -0.3664  -17.2176 C   0  0  0  0  0  0  0  0  0  0  0  0
    6.5948   -0.2509  -18.4882 C   0  0  0  0  0  0  0  0  0  0  0  0
    5.9922    0.5270  -19.4765 C   0  0  0  0  0  0  0  0  0  0  0  0
    4.8099    1.2025  -19.1938 C   0  0  0  0  0  0  0  0  0  0  0  0
    4.2281    1.0905  -17.9278 C   0  0  0  0  0  0  0  0  0  0  0  0
    3.7557   -0.9488  -13.3882 N   0  0  0  0  0  0  0  0  0  0  0  0
    2.3700   -1.2373  -13.7038 C   0  0  0  0  0  0  0  0  0  0  0  0
    4.5276   -1.7867  -12.6416 C   0  0  0  0  0  0  0  0  0  0  0  0
    5.6304   -2.0625  -13.0749 O   0  0  0  0  0  0  0  0  0  0  0  0
    3.9837   -2.4805  -11.3854 C   0  0  2  0  0  0  0  0  0  0  0  0
    2.9362   -1.6996  -10.4252 C   0  0  0  0  0  0  0  0  0  0  0  0
    2.1952   -0.3873  -10.7601 C   0  0  0  0  0  0  0  0  0  0  0  0
    0.8472   -0.3799  -11.1548 C   0  0  0  0  0  0  0  0  0  0  0  0
    0.1758    0.8027  -11.5023 C   0  0  0  0  0  0  0  0  0  0  0  0
    0.8171    2.0334  -11.4304 C   0  0  0  0  0  0  0  0  0  0  0  0
    2.1178    2.0731  -10.9576 C   0  0  0  0  0  0  0  0  0  0  0  0
    2.7633    0.8761  -10.6056 C   0  0  0  0  0  0  0  0  0  0  0  0
    5.1125   -3.1879  -10.6169 N   0  0  0  0  0  0  0  0  0  0  0  0
    6.4170   -3.5510  -11.0257 C   0  0  0  0  0  0  0  0  0  0  0  0
    6.6551   -4.7504  -10.9651 O   0  0  0  0  0  0  0  0  0  0  0  0
    7.6415   -2.4902  -11.2432 C   0  0  2  0  0  0  0  0  0  0  0  0
    8.6374   -2.9300  -12.4084 C   0  0  0  0  0  0  0  0  0  0  0  0
    9.7393   -1.8917  -12.6941 C   0  0  0  0  0  0  0  0  0  0  0  0
    7.9901   -3.2376  -13.7637 C   0  0  0  0  0  0  0  0  0  0  0  0
    8.4697   -2.2497   -9.9608 N   0  0  0  0  0  0  0  0  0  0  0  0
    9.0669   -3.4510   -9.3980 C   0  0  0  0  0  0  0  0  0  0  0  0
    8.9832   -0.9605   -9.7164 C   0  0  0  0  0  0  0  0  0  0  0  0
    8.8141   -0.1040  -10.5904 O   0  0  0  0  0  0  0  0  0  0  0  0
    9.6825   -0.4187   -8.3882 C   0  0  1  0  0  0  0  0  0  0  0  0
   10.7224   -1.3591   -7.7421 C   0  0  1  0  0  0  0  0  0  0  0  0
   11.9826   -1.5145   -8.5981 C   0  0  0  0  0  0  0  0  0  0  0  0
   11.0796   -0.9732   -6.2926 C   0  0  0  0  0  0  0  0  0  0  0  0
   11.6944   -2.1439   -5.5249 C   0  0  0  0  0  0  0  0  0  0  0  0
   10.2798    0.8988   -8.7230 O   0  0  0  0  0  0  0  0  0  0  0  0
   10.0927    1.9860   -7.9048 C   0  0  0  0  0  0  0  0  0  0  0  0
   10.8403    2.2037   -6.9565 O   0  0  0  0  0  0  0  0  0  0  0  0
    8.9785    2.9887   -8.3842 C   0  0  2  0  0  0  0  0  0  0  0  0
    9.3634    3.9548   -9.5561 C   0  0  2  0  0  0  0  0  0  0  0  0
   10.1569    3.2781  -10.6771 C   0  0  0  0  0  0  0  0  0  0  0  0
    8.1076    4.6662  -10.1065 C   0  0  0  0  0  0  0  0  0  0  0  0
    7.7911    5.8042   -9.3076 O   0  0  0  0  0  0  0  0  0  0  0  0
    8.3635    3.7887   -7.2533 N   0  0  0  0  0  0  0  0  0  0  0  0
    9.2698    4.7049   -6.5701 C   0  0  0  0  0  0  0  0  0  0  0  0
    6.9634    3.8560   -7.1031 C   0  0  0  0  0  0  0  0  0  0  0  0
    6.2399    3.2884   -7.9377 O   0  0  0  0  0  0  0  0  0  0  0  0
    6.2817    4.6575   -5.8947 C   0  0  2  0  0  0  0  0  0  0  0  0
    6.8931    4.4065   -4.4846 C   0  0  0  0  0  0  0  0  0  0  0  0
    6.5386    5.2780   -3.2560 C   0  0  0  0  0  0  0  0  0  0  0  0
    5.2316    4.8883   -2.5770 C   0  0  0  0  0  0  0  0  0  0  0  0
    7.6618    5.1036   -2.2073 C   0  0  0  0  0  0  0  0  0  0  0  0
    4.7810    4.7608   -5.9622 N   0  0  0  0  0  0  0  0  0  0  0  0
    3.6563    3.9893   -6.0775 C   0  0  0  0  0  0  0  0  0  0  0  0
    2.6004    4.6434   -6.0277 O   0  0  0  0  0  0  0  0  0  0  0  0
    3.5931    2.4378   -6.3519 C   0  0  2  0  0  0  0  0  0  0  0  0
    2.1242    1.8546   -6.3073 C   0  0  0  0  0  0  0  0  0  0  0  0
    1.9585    0.4445   -5.7110 C   0  0  0  0  0  0  0  0  0  0  0  0
    1.5913    1.7557   -7.7287 C   0  0  0  0  0  0  0  0  0  0  0  0
    4.4766    1.7156   -5.4538 N   0  0  0  0  0  0  0  0  0  0  0  0
    4.3265    2.0061   -4.0338 C   0  0  0  0  0  0  0  0  0  0  0  0
    5.6736    1.2572   -5.9677 C   0  0  0  0  0  0  0  0  0  0  0  0
    6.7578    1.6364   -5.5202 O   0  0  0  0  0  0  0  0  0  0  0  0
    4.6073   -1.9404   -3.0350 H   0  0  0  0  0  0  0  0  0  0  0  0
    3.6584   -1.1093   -4.2280 H   0  0  0  0  0  0  0  0  0  0  0  0
    5.0521   -0.3096   -3.4097 H   0  0  0  0  0  0  0  0  0  0  0  0
    5.0928   -2.6647   -5.3353 H   0  0  0  0  0  0  0  0  0  0  0  0
    6.4288   -2.2063   -4.3094 H   0  0  0  0  0  0  0  0  0  0  0  0
    7.2009   -0.5391   -5.5991 H   0  0  0  0  0  0  0  0  0  0  0  0
    6.2788   -2.7815   -7.3955 H   0  0  0  0  0  0  0  0  0  0  0  0
    7.5472   -2.8210   -6.1549 H   0  0  0  0  0  0  0  0  0  0  0  0
    7.7400   -1.7947   -7.5419 H   0  0  0  0  0  0  0  0  0  0  0  0
    4.6069   -0.2063   -7.2469 H   0  0  0  0  0  0  0  0  0  0  0  0
    6.5577    1.6213   -8.3450 H   0  0  0  0  0  0  0  0  0  0  0  0
    6.0819   -0.0269  -11.9134 H   0  0  0  0  0  0  0  0  0  0  0  0
    7.9884    1.0019  -12.3134 H   0  0  0  0  0  0  0  0  0  0  0  0
    7.7935    2.0113  -10.8526 H   0  0  0  0  0  0  0  0  0  0  0  0
    6.9616    2.4445  -13.7159 H   0  0  0  0  0  0  0  0  0  0  0  0
    7.5728    3.6583  -12.6119 H   0  0  0  0  0  0  0  0  0  0  0  0
    4.9869    3.7055  -12.9902 H   0  0  0  0  0  0  0  0  0  0  0  0
    5.3954    3.4953  -11.2734 H   0  0  0  0  0  0  0  0  0  0  0  0
    5.5884   -0.1794  -14.2279 H   0  0  0  0  0  0  0  0  0  0  0  0
    3.7457   -1.0907  -15.9078 H   0  0  0  0  0  0  0  0  0  0  0  0
    3.0344    0.4956  -15.7525 H   0  0  0  0  0  0  0  0  0  0  0  0
    6.4630   -1.0445  -16.4967 H   0  0  0  0  0  0  0  0  0  0  0  0
    7.5019   -0.8030  -18.7235 H   0  0  0  0  0  0  0  0  0  0  0  0
    6.4289    0.5881  -20.4706 H   0  0  0  0  0  0  0  0  0  0  0  0
    4.3183    1.7870  -19.9677 H   0  0  0  0  0  0  0  0  0  0  0  0
    3.2704    1.5779  -17.7530 H   0  0  0  0  0  0  0  0  0  0  0  0
    2.2937   -1.7617  -14.6618 H   0  0  0  0  0  0  0  0  0  0  0  0
    1.8053   -0.3005  -13.7689 H   0  0  0  0  0  0  0  0  0  0  0  0
    1.9212   -1.9233  -12.9863 H   0  0  0  0  0  0  0  0  0  0  0  0
    3.4046   -3.3215  -11.7962 H   0  0  0  0  0  0  0  0  0  0  0  0
    2.1450   -2.4348  -10.2230 H   0  0  0  0  0  0  0  0  0  0  0  0
    3.3450   -1.5717   -9.4188 H   0  0  0  0  0  0  0  0  0  0  0  0
    0.3035   -1.3253  -11.2242 H   0  0  0  0  0  0  0  0  0  0  0  0
   -0.8531    0.7671  -11.8392 H   0  0  0  0  0  0  0  0  0  0  0  0
    0.3113    2.9562  -11.7132 H   0  0  0  0  0  0  0  0  0  0  0  0
    2.6254    3.0316  -10.8460 H   0  0  0  0  0  0  0  0  0  0  0  0
    3.7318    0.9910  -10.1478 H   0  0  0  0  0  0  0  0  0  0  0  0
    4.7286   -4.0302  -10.2169 H   0  0  0  0  0  0  0  0  0  0  0  0
    7.2153   -1.5357  -11.5104 H   0  0  0  0  0  0  0  0  0  0  0  0
    9.1383   -3.8545  -12.0980 H   0  0  0  0  0  0  0  0  0  0  0  0
    9.3091   -0.9186  -12.9544 H   0  0  0  0  0  0  0  0  0  0  0  0
   10.3633   -2.1999  -13.5410 H   0  0  0  0  0  0  0  0  0  0  0  0
   10.4159   -1.7668  -11.8454 H   0  0  0  0  0  0  0  0  0  0  0  0
    7.6316   -2.3253  -14.2546 H   0  0  0  0  0  0  0  0  0  0  0  0
    7.1739   -3.9586  -13.6798 H   0  0  0  0  0  0  0  0  0  0  0  0
    8.7307   -3.6731  -14.4463 H   0  0  0  0  0  0  0  0  0  0  0  0
    8.7453   -4.3510   -9.9217 H   0  0  0  0  0  0  0  0  0  0  0  0
    8.7788   -3.5639   -8.3542 H   0  0  0  0  0  0  0  0  0  0  0  0
   10.1523   -3.3998   -9.5061 H   0  0  0  0  0  0  0  0  0  0  0  0
    8.8831   -0.1968   -7.6786 H   0  0  0  0  0  0  0  0  0  0  0  0
   10.2637   -2.3401   -7.6440 H   0  0  0  0  0  0  0  0  0  0  0  0
   12.6750   -0.6797   -8.4546 H   0  0  0  0  0  0  0  0  0  0  0  0
   11.7432   -1.5776   -9.6638 H   0  0  0  0  0  0  0  0  0  0  0  0
   12.5103   -2.4384   -8.3353 H   0  0  0  0  0  0  0  0  0  0  0  0
   10.1732   -0.6639   -5.7589 H   0  0  0  0  0  0  0  0  0  0  0  0
   11.7764   -0.1297   -6.2745 H   0  0  0  0  0  0  0  0  0  0  0  0
   11.0126   -3.0019   -5.5066 H   0  0  0  0  0  0  0  0  0  0  0  0
   11.8950   -1.8567   -4.4882 H   0  0  0  0  0  0  0  0  0  0  0  0
   12.6383   -2.4701   -5.9717 H   0  0  0  0  0  0  0  0  0  0  0  0
    8.2102    2.3263   -8.7669 H   0  0  0  0  0  0  0  0  0  0  0  0
   10.0156    4.7498   -9.1821 H   0  0  0  0  0  0  0  0  0  0  0  0
    9.8716    2.2406  -10.8429 H   0  0  0  0  0  0  0  0  0  0  0  0
   11.2222    3.2803  -10.4263 H   0  0  0  0  0  0  0  0  0  0  0  0
   10.0473    3.8067  -11.6297 H   0  0  0  0  0  0  0  0  0  0  0  0
    8.2645    5.0309  -11.1241 H   0  0  0  0  0  0  0  0  0  0  0  0
    7.2357    4.0087  -10.1140 H   0  0  0  0  0  0  0  0  0  0  0  0
    7.4614    6.4931   -9.9108 H   0  0  0  0  0  0  0  0  0  0  0  0
   10.1535    4.9197   -7.1731 H   0  0  0  0  0  0  0  0  0  0  0  0
    9.6227    4.2378   -5.6492 H   0  0  0  0  0  0  0  0  0  0  0  0
    8.7741    5.6573   -6.3682 H   0  0  0  0  0  0  0  0  0  0  0  0
    6.5545    5.6964   -6.1341 H   0  0  0  0  0  0  0  0  0  0  0  0
    6.8162    3.3655   -4.1891 H   0  0  0  0  0  0  0  0  0  0  0  0
    7.9616    4.5691   -4.5945 H   0  0  0  0  0  0  0  0  0  0  0  0
    6.4972    6.3342   -3.5430 H   0  0  0  0  0  0  0  0  0  0  0  0
    5.2660    3.8489   -2.2332 H   0  0  0  0  0  0  0  0  0  0  0  0
    4.3775    5.0243   -3.2412 H   0  0  0  0  0  0  0  0  0  0  0  0
    5.0540    5.5016   -1.6869 H   0  0  0  0  0  0  0  0  0  0  0  0
    7.7804    4.0480   -1.9301 H   0  0  0  0  0  0  0  0  0  0  0  0
    7.4492    5.6654   -1.2917 H   0  0  0  0  0  0  0  0  0  0  0  0
    8.6245    5.4531   -2.5957 H   0  0  0  0  0  0  0  0  0  0  0  0
    4.4654    5.7084   -5.7897 H   0  0  0  0  0  0  0  0  0  0  0  0
    3.9732    2.3265   -7.3743 H   0  0  0  0  0  0  0  0  0  0  0  0
    1.4598    2.5215   -5.7474 H   0  0  0  0  0  0  0  0  0  0  0  0
    2.7331   -0.2410   -6.0644 H   0  0  0  0  0  0  0  0  0  0  0  0
    0.9981   -0.0037   -5.9940 H   0  0  0  0  0  0  0  0  0  0  0  0
    1.9663    0.4683   -4.6200 H   0  0  0  0  0  0  0  0  0  0  0  0
    2.1916    1.0081   -8.2473 H   0  0  0  0  0  0  0  0  0  0  0  0
    1.6551    2.7131   -8.2488 H   0  0  0  0  0  0  0  0  0  0  0  0
    0.5527    1.4104   -7.7633 H   0  0  0  0  0  0  0  0  0  0  0  0
    3.9151    2.9983   -3.8691 H   0  0  0  0  0  0  0  0  0  0  0  0
    5.2682    1.8873   -3.4972 H   0  0  0  0  0  0  0  0  0  0  0  0
    3.5976    1.3155   -3.6059 H   0  0  0  0  0  0  0  0  0  0  0  0
  1  2  1  0  0  0  0
  1 80  1  0  0  0  0
  1 81  1  0  0  0  0
  1 82  1  0  0  0  0
  2 83  1  0  0  0  0
  2 84  1  0  0  0  0
  3  4  1  0  0  0  0
  3  2  1  0  0  0  0
  3 85  1  6  0  0  0
  4 86  1  0  0  0  0
  4 87  1  0  0  0  0
  4 88  1  0  0  0  0
  5  6  1  0  0  0  0
  5 78  1  0  0  0  0
  5  3  1  0  0  0  0
  5 89  1  6  0  0  0
  6  7  1  0  0  0  0
  6 90  1  0  0  0  0
  7  8  2  0  0  0  0
  7  9  1  0  0  0  0
  9 10  1  0  0  0  0
  9 13  1  0  0  0  0
  9 91  1  6  0  0  0
 10 11  1  0  0  0  0
 10 92  1  0  0  0  0
 10 93  1  0  0  0  0
 11 12  1  0  0  0  0
 11 94  1  0  0  0  0
 11 95  1  0  0  0  0
 12 13  1  0  0  0  0
 12 96  1  0  0  0  0
 12 97  1  0  0  0  0
 13 14  1  0  0  0  0
 14 15  2  0  0  0  0
 14 16  1  0  0  0  0
 16 24  1  0  0  0  0
 16 17  1  0  0  0  0
 16 98  1  1  0  0  0
 17 18  1  0  0  0  0
 17 99  1  0  0  0  0
 17100  1  0  0  0  0
 18 19  1  0  0  0  0
 18 23  2  0  0  0  0
 19 20  2  0  0  0  0
 19101  1  0  0  0  0
 20 21  1  0  0  0  0
 20102  1  0  0  0  0
 21 22  2  0  0  0  0
 21103  1  0  0  0  0
 22 23  1  0  0  0  0
 22104  1  0  0  0  0
 23105  1  0  0  0  0
 24 25  1  0  0  0  0
 24 26  1  0  0  0  0
 25106  1  0  0  0  0
 25107  1  0  0  0  0
 25108  1  0  0  0  0
 26 27  2  0  0  0  0
 26 28  1  0  0  0  0
 28 36  1  0  0  0  0
 28 29  1  0  0  0  0
 28109  1  6  0  0  0
 29 30  1  0  0  0  0
 29110  1  0  0  0  0
 29111  1  0  0  0  0
 30 31  1  0  0  0  0
 30 35  2  0  0  0  0
 31 32  2  0  0  0  0
 31112  1  0  0  0  0
 32 33  1  0  0  0  0
 32113  1  0  0  0  0
 33 34  2  0  0  0  0
 33114  1  0  0  0  0
 34 35  1  0  0  0  0
 34115  1  0  0  0  0
 35116  1  0  0  0  0
 36 37  1  0  0  0  0
 36117  1  0  0  0  0
 37 38  2  0  0  0  0
 37 39  1  0  0  0  0
 39 43  1  0  0  0  0
 39 40  1  0  0  0  0
 39118  1  6  0  0  0
 40 41  1  0  0  0  0
 40 42  1  0  0  0  0
 40119  1  0  0  0  0
 41120  1  0  0  0  0
 41121  1  0  0  0  0
 41122  1  0  0  0  0
 42123  1  0  0  0  0
 42124  1  0  0  0  0
 42125  1  0  0  0  0
 43 44  1  0  0  0  0
 43 45  1  0  0  0  0
 44126  1  0  0  0  0
 44127  1  0  0  0  0
 44128  1  0  0  0  0
 45 46  2  0  0  0  0
 45 47  1  0  0  0  0
 47 48  1  0  0  0  0
 47 52  1  0  0  0  0
 47129  1  1  0  0  0
 48 49  1  0  0  0  0
 48 50  1  0  0  0  0
 48130  1  1  0  0  0
 49131  1  0  0  0  0
 49132  1  0  0  0  0
 49133  1  0  0  0  0
 50 51  1  0  0  0  0
 50134  1  0  0  0  0
 50135  1  0  0  0  0
 51136  1  0  0  0  0
 51137  1  0  0  0  0
 51138  1  0  0  0  0
 52 53  1  0  0  0  0
 53 54  2  0  0  0  0
 53 55  1  0  0  0  0
 55 60  1  0  0  0  0
 55 56  1  0  0  0  0
 55139  1  6  0  0  0
 56 58  1  0  0  0  0
 56 57  1  0  0  0  0
 56140  1  6  0  0  0
 57141  1  0  0  0  0
 57142  1  0  0  0  0
 57143  1  0  0  0  0
 58 59  1  0  0  0  0
 58144  1  0  0  0  0
 58145  1  0  0  0  0
 59146  1  0  0  0  0
 60 61  1  0  0  0  0
 60 62  1  0  0  0  0
 61147  1  0  0  0  0
 61148  1  0  0  0  0
 61149  1  0  0  0  0
 62 63  2  0  0  0  0
 62 64  1  0  0  0  0
 64 69  1  0  0  0  0
 64 65  1  0  0  0  0
 64150  1  6  0  0  0
 65 66  1  0  0  0  0
 65151  1  0  0  0  0
 65152  1  0  0  0  0
 66 67  1  0  0  0  0
 66 68  1  0  0  0  0
 66153  1  0  0  0  0
 67154  1  0  0  0  0
 67155  1  0  0  0  0
 67156  1  0  0  0  0
 68157  1  0  0  0  0
 68158  1  0  0  0  0
 68159  1  0  0  0  0
 69 70  1  0  0  0  0
 69160  1  0  0  0  0
 70 71  2  0  0  0  0
 70 72  1  0  0  0  0
 72 76  1  0  0  0  0
 72 73  1  0  0  0  0
 72161  1  6  0  0  0
 73 74  1  0  0  0  0
 73 75  1  0  0  0  0
 73162  1  0  0  0  0
 74163  1  0  0  0  0
 74164  1  0  0  0  0
 74165  1  0  0  0  0
 75166  1  0  0  0  0
 75167  1  0  0  0  0
 75168  1  0  0  0  0
 76 77  1  0  0  0  0
 76 78  1  0  0  0  0
 77169  1  0  0  0  0
 77170  1  0  0  0  0
 77171  1  0  0  0  0
 78 79  2  0  0  0  0
M  END
>  <Energy>
540.949

$$$$