44285570
  -OEChem-03242010103D

 79 80  0     1  0  0  0  0  0999 V2000
   -1.0544    0.8770   -1.1061 O   0  0  0  0  0  0  0  0  0  0  0  0
    2.5772    2.8324    0.8550 O   0  0  0  0  0  0  0  0  0  0  0  0
    1.2890   -1.3995   -1.9688 O   0  0  0  0  0  0  0  0  0  0  0  0
   -0.0715    2.4883   -2.4344 O   0  0  0  0  0  0  0  0  0  0  0  0
    4.4217   -1.7426   -1.3169 O   0  0  0  0  0  0  0  0  0  0  0  0
   -0.6351   -2.5032   -1.3315 O   0  0  0  0  0  0  0  0  0  0  0  0
    3.5875    4.9918    1.0746 O   0  0  0  0  0  0  0  0  0  0  0  0
    3.2962   -0.1213   -0.0978 N   0  0  0  0  0  0  0  0  0  0  0  0
    2.0406    0.4876    0.4330 C   0  0  2  0  0  0  0  0  0  0  0  0
    1.8694    1.9602   -0.0251 C   0  0  1  0  0  0  0  0  0  0  0  0
   -1.7182    0.2538   -2.2320 C   0  0  2  0  0  0  0  0  0  0  0  0
   -2.9803   -0.4079   -1.6853 C   0  0  0  0  0  0  0  0  0  0  0  0
   -0.7382   -0.6951   -2.9574 C   0  0  1  0  0  0  0  0  0  0  0  0
    1.9477    0.2909    1.9503 C   0  0  0  0  0  0  0  0  0  0  0  0
    0.4036    2.4057   -0.0695 C   0  0  0  0  0  0  0  0  0  0  0  0
   -3.8595    0.6026   -0.9518 C   0  0  0  0  0  0  0  0  0  0  0  0
   -5.1467   -0.0103   -0.3928 C   0  0  0  0  0  0  0  0  0  0  0  0
   -0.2619    1.9575   -1.3480 C   0  0  0  0  0  0  0  0  0  0  0  0
    3.3670   -1.3183   -0.8315 C   0  0  0  0  0  0  0  0  0  0  0  0
    2.0778   -2.1235   -1.0093 C   0  0  2  0  0  0  0  0  0  0  0  0
   -5.9959    0.9809    0.4062 C   0  0  0  0  0  0  0  0  0  0  0  0
   -0.0543   -1.6524   -1.9922 C   0  0  0  0  0  0  0  0  0  0  0  0
   -1.3792   -1.4870   -4.0922 C   0  0  0  0  0  0  0  0  0  0  0  0
    1.5482   -1.1138    2.2931 C   0  0  0  0  0  0  0  0  0  0  0  0
    4.5482    0.5963    0.1516 C   0  0  0  0  0  0  0  0  0  0  0  0
   -7.2553    0.3104    0.9599 C   0  0  0  0  0  0  0  0  0  0  0  0
    2.3675   -3.5239   -1.5455 C   0  0  0  0  0  0  0  0  0  0  0  0
    2.9171    4.0625    0.2234 C   0  0  0  0  0  0  0  0  0  0  0  0
   -8.0866    1.2880    1.7905 C   0  0  0  0  0  0  0  0  0  0  0  0
    0.1991   -1.4428    2.4230 C   0  0  0  0  0  0  0  0  0  0  0  0
    2.5256   -2.0907    2.4817 C   0  0  0  0  0  0  0  0  0  0  0  0
   -0.1728   -2.7490    2.7417 C   0  0  0  0  0  0  0  0  0  0  0  0
    2.1540   -3.3968    2.8004 C   0  0  0  0  0  0  0  0  0  0  0  0
   -9.3555    0.6350    2.3144 C   0  0  0  0  0  0  0  0  0  0  0  0
    0.8047   -3.7259    2.9305 C   0  0  0  0  0  0  0  0  0  0  0  0
    4.8232    4.4830    1.5590 C   0  0  0  0  0  0  0  0  0  0  0  0
    1.2077   -0.0499   -0.0169 H   0  0  0  0  0  0  0  0  0  0  0  0
    2.2931    2.0431   -1.0362 H   0  0  0  0  0  0  0  0  0  0  0  0
   -2.0324    1.0358   -2.9368 H   0  0  0  0  0  0  0  0  0  0  0  0
   -3.5564   -0.8648   -2.4970 H   0  0  0  0  0  0  0  0  0  0  0  0
   -2.7226   -1.2004   -0.9749 H   0  0  0  0  0  0  0  0  0  0  0  0
    0.0492   -0.0714   -3.4022 H   0  0  0  0  0  0  0  0  0  0  0  0
    1.1972    0.9690    2.3765 H   0  0  0  0  0  0  0  0  0  0  0  0
    2.8821    0.5448    2.4636 H   0  0  0  0  0  0  0  0  0  0  0  0
    0.2725    3.4903   -0.0114 H   0  0  0  0  0  0  0  0  0  0  0  0
   -0.1537    2.0207    0.7929 H   0  0  0  0  0  0  0  0  0  0  0  0
   -3.3047    1.0485   -0.1174 H   0  0  0  0  0  0  0  0  0  0  0  0
   -4.1214    1.4223   -1.6322 H   0  0  0  0  0  0  0  0  0  0  0  0
   -5.7414   -0.4131   -1.2220 H   0  0  0  0  0  0  0  0  0  0  0  0
   -4.8864   -0.8594    0.2515 H   0  0  0  0  0  0  0  0  0  0  0  0
    1.5435   -2.2156   -0.0680 H   0  0  0  0  0  0  0  0  0  0  0  0
   -6.2767    1.8244   -0.2358 H   0  0  0  0  0  0  0  0  0  0  0  0
   -5.4011    1.3870    1.2333 H   0  0  0  0  0  0  0  0  0  0  0  0
   -2.1007   -2.2229   -3.7223 H   0  0  0  0  0  0  0  0  0  0  0  0
   -0.6157   -2.0420   -4.6489 H   0  0  0  0  0  0  0  0  0  0  0  0
   -1.8913   -0.8209   -4.7937 H   0  0  0  0  0  0  0  0  0  0  0  0
    4.6003    1.4572   -0.5199 H   0  0  0  0  0  0  0  0  0  0  0  0
    5.4188   -0.0368   -0.0402 H   0  0  0  0  0  0  0  0  0  0  0  0
    4.5972    0.9315    1.1895 H   0  0  0  0  0  0  0  0  0  0  0  0
   -6.9736   -0.5489    1.5806 H   0  0  0  0  0  0  0  0  0  0  0  0
   -7.8597   -0.0751    0.1297 H   0  0  0  0  0  0  0  0  0  0  0  0
    2.8208   -3.4793   -2.5423 H   0  0  0  0  0  0  0  0  0  0  0  0
    1.4459   -4.1054   -1.6478 H   0  0  0  0  0  0  0  0  0  0  0  0
    3.0443   -4.0696   -0.8801 H   0  0  0  0  0  0  0  0  0  0  0  0
    3.5569    3.8697   -0.6468 H   0  0  0  0  0  0  0  0  0  0  0  0
    2.0222    4.5780   -0.1330 H   0  0  0  0  0  0  0  0  0  0  0  0
   -8.3566    2.1583    1.1811 H   0  0  0  0  0  0  0  0  0  0  0  0
   -7.4940    1.6554    2.6365 H   0  0  0  0  0  0  0  0  0  0  0  0
   -0.5725   -0.6921    2.2734 H   0  0  0  0  0  0  0  0  0  0  0  0
    3.5806   -1.8477    2.3870 H   0  0  0  0  0  0  0  0  0  0  0  0
   -1.2235   -3.0056    2.8407 H   0  0  0  0  0  0  0  0  0  0  0  0
    2.9151   -4.1575    2.9469 H   0  0  0  0  0  0  0  0  0  0  0  0
   -9.1204   -0.2221    2.9534 H   0  0  0  0  0  0  0  0  0  0  0  0
   -9.9867    0.2869    1.4906 H   0  0  0  0  0  0  0  0  0  0  0  0
   -9.9340    1.3513    2.9062 H   0  0  0  0  0  0  0  0  0  0  0  0
    0.5153   -4.7431    3.1777 H   0  0  0  0  0  0  0  0  0  0  0  0
    5.3054    5.2630    2.1544 H   0  0  0  0  0  0  0  0  0  0  0  0
    5.4841    4.2199    0.7275 H   0  0  0  0  0  0  0  0  0  0  0  0
    4.6577    3.6118    2.1997 H   0  0  0  0  0  0  0  0  0  0  0  0
  1 11  1  0  0  0  0
  1 18  1  0  0  0  0
  2 10  1  0  0  0  0
  2 28  1  0  0  0  0
  3 20  1  0  0  0  0
  3 22  1  0  0  0  0
  4 18  2  0  0  0  0
  5 19  2  0  0  0  0
  6 22  2  0  0  0  0
  7 28  1  0  0  0  0
  7 36  1  0  0  0  0
  8  9  1  0  0  0  0
  8 19  1  0  0  0  0
  8 25  1  0  0  0  0
  9 10  1  0  0  0  0
  9 14  1  0  0  0  0
  9 37  1  0  0  0  0
 10 15  1  0  0  0  0
 10 38  1  0  0  0  0
 11 12  1  0  0  0  0
 11 13  1  0  0  0  0
 11 39  1  0  0  0  0
 12 16  1  0  0  0  0
 12 40  1  0  0  0  0
 12 41  1  0  0  0  0
 13 22  1  0  0  0  0
 13 23  1  0  0  0  0
 13 42  1  0  0  0  0
 14 24  1  0  0  0  0
 14 43  1  0  0  0  0
 14 44  1  0  0  0  0
 15 18  1  0  0  0  0
 15 45  1  0  0  0  0
 15 46  1  0  0  0  0
 16 17  1  0  0  0  0
 16 47  1  0  0  0  0
 16 48  1  0  0  0  0
 17 21  1  0  0  0  0
 17 49  1  0  0  0  0
 17 50  1  0  0  0  0
 19 20  1  0  0  0  0
 20 27  1  0  0  0  0
 20 51  1  0  0  0  0
 21 26  1  0  0  0  0
 21 52  1  0  0  0  0
 21 53  1  0  0  0  0
 23 54  1  0  0  0  0
 23 55  1  0  0  0  0
 23 56  1  0  0  0  0
 24 30  2  0  0  0  0
 24 31  1  0  0  0  0
 25 57  1  0  0  0  0
 25 58  1  0  0  0  0
 25 59  1  0  0  0  0
 26 29  1  0  0  0  0
 26 60  1  0  0  0  0
 26 61  1  0  0  0  0
 27 62  1  0  0  0  0
 27 63  1  0  0  0  0
 27 64  1  0  0  0  0
 28 65  1  0  0  0  0
 28 66  1  0  0  0  0
 29 34  1  0  0  0  0
 29 67  1  0  0  0  0
 29 68  1  0  0  0  0
 30 32  1  0  0  0  0
 30 69  1  0  0  0  0
 31 33  2  0  0  0  0
 31 70  1  0  0  0  0
 32 35  2  0  0  0  0
 32 71  1  0  0  0  0
 33 35  1  0  0  0  0
 33 72  1  0  0  0  0
 34 73  1  0  0  0  0
 34 74  1  0  0  0  0
 34 75  1  0  0  0  0
 35 76  1  0  0  0  0
 36 77  1  0  0  0  0
 36 78  1  0  0  0  0
 36 79  1  0  0  0  0
M  END
> <PUBCHEM_COMPOUND_CID>
44285570

> <PUBCHEM_CONFORMER_RMSD>
1.2

> <PUBCHEM_CONFORMER_DIVERSEORDER>
1
33
11
18
4
31
25
41
35
14
21
19
28
26
36
34
37
40
23
7
13
6
16
24
30
10
39
29
15
32
17
27
22
42
2
9
3
38
12
20
5
8

> <PUBCHEM_MMFF94_PARTIAL_CHARGES>
32
1 -0.43
10 0.28
11 0.28
13 0.06
14 0.14
15 0.06
18 0.66
19 0.57
2 -0.56
20 0.34
22 0.66
24 -0.14
25 0.3
28 0.56
3 -0.43
30 -0.15
31 -0.15
32 -0.15
33 -0.15
35 -0.15
36 0.28
4 -0.57
5 -0.57
6 -0.57
69 0.15
7 -0.56
70 0.15
71 0.15
72 0.15
76 0.15
8 -0.66
9 0.3

> <PUBCHEM_EFFECTIVE_ROTOR_COUNT>
12.8

> <PUBCHEM_PHARMACOPHORE_FEATURES>
9
1 2 acceptor
1 34 hydrophobe
1 4 acceptor
1 5 acceptor
1 6 acceptor
1 7 acceptor
3 12 16 17 hydrophobe
3 21 26 29 hydrophobe
6 24 30 31 32 33 35 rings

> <PUBCHEM_HEAVY_ATOM_COUNT>
36

> <PUBCHEM_ATOM_DEF_STEREO_COUNT>
5

> <PUBCHEM_ATOM_UDEF_STEREO_COUNT>
0

> <PUBCHEM_BOND_DEF_STEREO_COUNT>
0

> <PUBCHEM_BOND_UDEF_STEREO_COUNT>
0

> <PUBCHEM_ISOTOPIC_ATOM_COUNT>
0

> <PUBCHEM_COMPONENT_COUNT>
1

> <PUBCHEM_CACTVS_TAUTO_COUNT>
8

> <PUBCHEM_CONFORMER_ID>
02A3BE8200000001

> <PUBCHEM_MMFF94_ENERGY>
77.9772

> <PUBCHEM_FEATURE_SELFOVERLAP>
45.719

> <PUBCHEM_SHAPE_FINGERPRINT>
11578080 2 17460040793826255180
1200032 147 18201156666909027448
12047536 79 18335133143535803157
15219462 58 17605810570238686405
20715895 44 12391503171098433663
21796203 349 18191279634098207810
23419403 2 18119549840870631826
35225 105 17241035630619610454
513532 50 18188503393250690603
86090 222 17676781902749254667

> <PUBCHEM_SHAPE_MULTIPOLES>
694.8
13.47
5.21
3.95
46.51
3.49
1.24
7.97
-11.27
-9.72
-3.5
0.98
-3.09
0.63

> <PUBCHEM_SHAPE_SELFOVERLAP>
1394.624

> <PUBCHEM_SHAPE_VOLUME>
405.2

> <PUBCHEM_COORDINATE_TYPE>
2
5
10

$$$$