
 OpenBabel04072018023D

169173  0  0  1  0  0  0  0  0999 V2000
    3.0243   -4.6872    0.3864 C   0  0  2  0  0  0  0  0  0  0  0  0
    2.6844   -6.1905    0.6465 N   0  0  0  0  0  0  0  0  0  0  0  0
    2.3532   -3.8316    1.3311 O   0  0  0  0  0  0  0  0  0  0  0  0
    1.7806   -3.6526    0.0377 C   0  0  0  0  0  0  0  0  0  0  0  0
    4.5057   -4.0955   -0.0623 C   0  0  0  0  0  0  0  0  0  0  0  0
    6.4623  -12.2564   -0.2834 N   0  0  0  0  0  0  0  0  0  0  0  0
    9.3533   -2.5539    1.5577 N   0  0  0  0  0  0  0  0  0  0  0  0
   13.1199  -11.4567    0.0821 C   0  0  0  0  0  0  0  0  0  0  0  0
    7.6968  -12.4464   -0.9202 C   0  0  0  0  0  0  0  0  0  0  0  0
    7.9899   -2.6554    1.9879 C   0  0  0  0  0  0  0  0  0  0  0  0
   14.1319   -8.7858    0.2250 N   0  0  0  0  0  0  0  0  0  0  0  0
   13.3633  -12.8467    0.1734 N   0  0  0  0  0  0  0  0  0  0  0  0
    3.1938   -7.2695   -0.1098 C   0  0  0  0  0  0  0  0  0  0  0  0
    4.7370  -10.6256    0.9008 C   0  0  0  0  0  0  0  0  0  0  0  0
   12.0367   -4.1615    1.8337 C   0  0  0  0  0  0  0  0  0  0  0  0
   14.3235  -10.3094   -0.0913 C   0  0  1  0  0  0  0  0  0  0  0  0
    9.8792  -13.3089    0.0336 N   0  0  0  0  0  0  0  0  0  0  0  0
   13.2371   -8.2502    1.1741 C   0  0  0  0  0  0  0  0  0  0  0  0
    5.4037   -3.7425    0.9812 O   0  0  0  0  0  0  0  0  0  0  0  0
   10.8789  -14.2512    0.0418 C   0  0  0  0  0  0  0  0  0  0  0  0
    4.3478   -9.3847    0.4122 N   0  0  0  0  0  0  0  0  0  0  0  0
   12.6407   -5.4665    1.6735 N   0  0  0  0  0  0  0  0  0  0  0  0
    8.5594  -13.6790   -0.5643 C   0  0  1  0  0  0  0  0  0  0  0  0
    6.5040   -2.5756    1.0198 C   0  0  2  0  0  0  0  0  0  0  0  0
    3.0102   -8.7703    0.5047 C   0  0  2  0  0  0  0  0  0  0  0  0
   12.4813   -6.8107    0.8073 C   0  0  1  0  0  0  0  0  0  0  0  0
   10.3622   -3.8268    1.7343 C   0  0  2  0  0  0  0  0  0  0  0  0
    6.2261  -11.0788    0.6180 C   0  0  2  0  0  0  0  0  0  0  0  0
   12.3742  -13.8745   -0.2863 C   0  0  2  0  0  0  0  0  0  0  0  0
    4.6930   -3.8055   -1.2043 O   0  0  0  0  0  0  0  0  0  0  0  0
   11.9378  -11.0883   -0.0095 O   0  0  0  0  0  0  0  0  0  0  0  0
    7.8354   -3.0088    3.1732 O   0  0  0  0  0  0  0  0  0  0  0  0
    8.1210  -11.6895   -1.7963 O   0  0  0  0  0  0  0  0  0  0  0  0
   15.8302  -10.7174   -0.1007 C   0  0  0  0  0  0  0  0  0  0  0  0
    3.9490  -11.3778    1.4746 O   0  0  0  0  0  0  0  0  0  0  0  0
   12.7873   -3.2698    2.2590 O   0  0  0  0  0  0  0  0  0  0  0  0
    3.9045   -7.0862   -1.1005 O   0  0  0  0  0  0  0  0  0  0  0  0
   12.9752   -8.8538    2.2148 O   0  0  0  0  0  0  0  0  0  0  0  0
   10.5664  -15.4490    0.0312 O   0  0  0  0  0  0  0  0  0  0  0  0
   12.5319   -6.6429   -0.7903 C   0  0  0  0  0  0  0  0  0  0  0  0
    1.9893   -9.8338    0.0246 C   0  0  0  0  0  0  0  0  0  0  0  0
    1.4675   -6.4664    1.4201 C   0  0  0  0  0  0  0  0  0  0  0  0
    7.7250  -14.9079   -0.0728 C   0  0  2  0  0  0  0  0  0  0  0  0
    6.0938   -1.3375    0.1070 C   0  0  2  0  0  0  0  0  0  0  0  0
    5.3184  -12.7033   -1.0638 C   0  0  0  0  0  0  0  0  0  0  0  0
    9.8547   -1.3117    0.9920 C   0  0  0  0  0  0  0  0  0  0  0  0
   10.0327   -4.5864    0.4944 C   0  0  0  0  0  0  0  0  0  0  0  0
    7.0820   -9.8489    0.2852 C   0  0  0  0  0  0  0  0  0  0  0  0
   14.6835  -13.4466    0.0398 C   0  0  0  0  0  0  0  0  0  0  0  0
    1.9398   -2.2203   -0.3987 C   0  0  0  0  0  0  0  0  0  0  0  0
    0.3528   -4.1409   -0.1168 C   0  0  0  0  0  0  0  0  0  0  0  0
   15.2587   -7.9047   -0.1008 C   0  0  0  0  0  0  0  0  0  0  0  0
   16.5742  -10.8498    1.2015 C   0  0  0  0  0  0  0  0  0  0  0  0
   11.2120   -6.7997   -1.5214 C   0  0  0  0  0  0  0  0  0  0  0  0
   13.1097  -15.2265   -0.0046 C   0  0  0  0  0  0  0  0  0  0  0  0
   14.5718  -14.9438    0.1709 C   0  0  0  0  0  0  0  0  0  0  0  0
    0.6894   -9.5363   -0.7318 C   0  0  0  0  0  0  0  0  0  0  0  0
    7.8905  -15.3599    1.3841 C   0  0  0  0  0  0  0  0  0  0  0  0
    7.0656   -0.7224   -0.9187 C   0  0  0  0  0  0  0  0  0  0  0  0
    5.5483   -0.1680    0.9783 C   0  0  0  0  0  0  0  0  0  0  0  0
    7.8498  -16.0799   -1.0694 C   0  0  0  0  0  0  0  0  0  0  0  0
    6.8124   -9.4204   -1.1850 C   0  0  0  0  0  0  0  0  0  0  0  0
    8.5737   -5.0049    0.5288 C   0  0  0  0  0  0  0  0  0  0  0  0
   10.6538   -3.7896   -0.6723 C   0  0  0  0  0  0  0  0  0  0  0  0
    8.5436  -10.0641    0.7076 C   0  0  0  0  0  0  0  0  0  0  0  0
   17.9742  -10.9777    1.1577 C   0  0  0  0  0  0  0  0  0  0  0  0
   15.9309  -10.8844    2.4409 C   0  0  0  0  0  0  0  0  0  0  0  0
   10.8450   -6.0065   -2.6237 C   0  0  0  0  0  0  0  0  0  0  0  0
   10.2669   -7.6405   -0.9767 C   0  0  0  0  0  0  0  0  0  0  0  0
   -0.4736  -10.3101   -0.0748 C   0  0  0  0  0  0  0  0  0  0  0  0
    0.8023  -10.0428   -2.1799 C   0  0  0  0  0  0  0  0  0  0  0  0
    7.2381  -14.4024    2.3681 C   0  0  0  0  0  0  0  0  0  0  0  0
    7.4156   -1.5817   -2.1189 C   0  0  0  0  0  0  0  0  0  0  0  0
    9.4949   -5.8486   -2.9736 C   0  0  0  0  0  0  0  0  0  0  0  0
    8.9425   -7.3885   -1.2639 C   0  0  0  0  0  0  0  0  0  0  0  0
   16.6740  -11.0150    3.6133 C   0  0  0  0  0  0  0  0  0  0  0  0
   18.7158  -11.1007    2.3317 C   0  0  0  0  0  0  0  0  0  0  0  0
    8.5255   -6.5033   -2.2441 C   0  0  0  0  0  0  0  0  0  0  0  0
   18.0640  -11.1139    3.5607 C   0  0  0  0  0  0  0  0  0  0  0  0
   12.3559  -13.7318   -1.3781 H   0  0  0  0  0  0  0  0  0  0  0  0
    5.9970   -2.2236    1.9290 H   0  0  0  0  0  0  0  0  0  0  0  0
    8.8829  -13.9720   -1.5779 H   0  0  0  0  0  0  0  0  0  0  0  0
    1.2493   -5.6887    2.1489 H   0  0  0  0  0  0  0  0  0  0  0  0
    0.6357   -6.5884    0.7168 H   0  0  0  0  0  0  0  0  0  0  0  0
    1.5163   -7.4011    1.9755 H   0  0  0  0  0  0  0  0  0  0  0  0
    1.0575   -1.6366   -0.0974 H   0  0  0  0  0  0  0  0  0  0  0  0
    2.7998   -1.7359    0.0677 H   0  0  0  0  0  0  0  0  0  0  0  0
    2.0219   -2.1509   -1.4858 H   0  0  0  0  0  0  0  0  0  0  0  0
    0.2985   -4.9828   -0.8133 H   0  0  0  0  0  0  0  0  0  0  0  0
   -0.1015   -4.4188    0.8395 H   0  0  0  0  0  0  0  0  0  0  0  0
   -0.3059   -3.3656   -0.5306 H   0  0  0  0  0  0  0  0  0  0  0  0
    2.8959   -8.6632    1.5861 H   0  0  0  0  0  0  0  0  0  0  0  0
    9.9902   -4.3167    2.6432 H   0  0  0  0  0  0  0  0  0  0  0  0
    9.8041   -1.3425   -0.0999 H   0  0  0  0  0  0  0  0  0  0  0  0
    9.2526   -0.4650    1.3299 H   0  0  0  0  0  0  0  0  0  0  0  0
   10.8941   -1.1508    1.2968 H   0  0  0  0  0  0  0  0  0  0  0  0
   13.0495   -5.7115    2.5713 H   0  0  0  0  0  0  0  0  0  0  0  0
    6.5476  -11.4384    1.6057 H   0  0  0  0  0  0  0  0  0  0  0  0
    4.6086  -13.1973   -0.3963 H   0  0  0  0  0  0  0  0  0  0  0  0
    4.8417  -11.8598   -1.5659 H   0  0  0  0  0  0  0  0  0  0  0  0
    5.6361  -13.4157   -1.8342 H   0  0  0  0  0  0  0  0  0  0  0  0
    5.0145   -8.7568   -0.0043 H   0  0  0  0  0  0  0  0  0  0  0  0
   10.2056  -12.3573   -0.1480 H   0  0  0  0  0  0  0  0  0  0  0  0
   14.1804  -10.2210   -1.1875 H   0  0  0  0  0  0  0  0  0  0  0  0
   15.5871   -8.0821   -1.1292 H   0  0  0  0  0  0  0  0  0  0  0  0
   15.0062   -6.8486    0.0079 H   0  0  0  0  0  0  0  0  0  0  0  0
   16.0737   -8.0987    0.6031 H   0  0  0  0  0  0  0  0  0  0  0  0
   15.0351  -13.2448   -0.9768 H   0  0  0  0  0  0  0  0  0  0  0  0
   15.3689  -13.0745    0.7933 H   0  0  0  0  0  0  0  0  0  0  0  0
   15.9954  -11.6184   -0.6870 H   0  0  0  0  0  0  0  0  0  0  0  0
   16.3916   -9.9920   -0.7037 H   0  0  0  0  0  0  0  0  0  0  0  0
   11.4758   -7.0888    1.1295 H   0  0  0  0  0  0  0  0  0  0  0  0
    6.6638  -14.6646   -0.1632 H   0  0  0  0  0  0  0  0  0  0  0  0
    5.2303   -1.6427   -0.4916 H   0  0  0  0  0  0  0  0  0  0  0  0
    2.5254  -10.5971   -0.5579 H   0  0  0  0  0  0  0  0  0  0  0  0
    1.7116  -10.3720    0.9441 H   0  0  0  0  0  0  0  0  0  0  0  0
   13.0254   -5.6988   -1.0374 H   0  0  0  0  0  0  0  0  0  0  0  0
   13.1294   -7.4119   -1.2809 H   0  0  0  0  0  0  0  0  0  0  0  0
   10.5375   -5.5233    0.5454 H   0  0  0  0  0  0  0  0  0  0  0  0
    6.7566   -9.0232    0.9352 H   0  0  0  0  0  0  0  0  0  0  0  0
   12.7521  -15.6901    0.9260 H   0  0  0  0  0  0  0  0  0  0  0  0
   12.9342  -15.9531   -0.8082 H   0  0  0  0  0  0  0  0  0  0  0  0
    0.4588   -8.4697   -0.7257 H   0  0  0  0  0  0  0  0  0  0  0  0
    7.4136  -16.3404    1.5067 H   0  0  0  0  0  0  0  0  0  0  0  0
    8.9348  -15.4973    1.6664 H   0  0  0  0  0  0  0  0  0  0  0  0
    8.8421  -16.5322   -1.0832 H   0  0  0  0  0  0  0  0  0  0  0  0
    7.1259  -16.8658   -0.8345 H   0  0  0  0  0  0  0  0  0  0  0  0
    7.6255  -15.7373   -2.0882 H   0  0  0  0  0  0  0  0  0  0  0  0
    6.5954    0.1824   -1.3358 H   0  0  0  0  0  0  0  0  0  0  0  0
    7.9641   -0.3554   -0.4317 H   0  0  0  0  0  0  0  0  0  0  0  0
    4.4740   -0.0469    0.7964 H   0  0  0  0  0  0  0  0  0  0  0  0
    5.6760   -0.3223    2.0532 H   0  0  0  0  0  0  0  0  0  0  0  0
    6.0257    0.7889    0.7455 H   0  0  0  0  0  0  0  0  0  0  0  0
    8.5093   -6.0823    0.5852 H   0  0  0  0  0  0  0  0  0  0  0  0
    8.0830   -4.8068    1.4791 H   0  0  0  0  0  0  0  0  0  0  0  0
    7.9955   -4.5970   -0.2958 H   0  0  0  0  0  0  0  0  0  0  0  0
   11.5819   -4.2546   -1.0005 H   0  0  0  0  0  0  0  0  0  0  0  0
   11.0788   -2.8242   -0.3917 H   0  0  0  0  0  0  0  0  0  0  0  0
    9.9872   -3.6384   -1.5138 H   0  0  0  0  0  0  0  0  0  0  0  0
    7.6927   -9.4841   -1.8241 H   0  0  0  0  0  0  0  0  0  0  0  0
    6.0240   -9.9995   -1.6708 H   0  0  0  0  0  0  0  0  0  0  0  0
    6.4482   -8.3874   -1.2296 H   0  0  0  0  0  0  0  0  0  0  0  0
    9.2148  -10.1696   -0.1444 H   0  0  0  0  0  0  0  0  0  0  0  0
    8.8882   -9.2152    1.3101 H   0  0  0  0  0  0  0  0  0  0  0  0
    8.6701  -10.9447    1.3464 H   0  0  0  0  0  0  0  0  0  0  0  0
   15.1832  -15.4664   -0.5738 H   0  0  0  0  0  0  0  0  0  0  0  0
   14.9134  -15.2834    1.1555 H   0  0  0  0  0  0  0  0  0  0  0  0
   18.4998  -10.9775    0.2040 H   0  0  0  0  0  0  0  0  0  0  0  0
   14.8481  -10.8132    2.5197 H   0  0  0  0  0  0  0  0  0  0  0  0
   11.5756   -5.3629   -3.1054 H   0  0  0  0  0  0  0  0  0  0  0  0
   10.5064   -8.3324   -0.1755 H   0  0  0  0  0  0  0  0  0  0  0  0
   -1.4306  -10.0543   -0.5410 H   0  0  0  0  0  0  0  0  0  0  0  0
   -0.3382  -11.3953   -0.1754 H   0  0  0  0  0  0  0  0  0  0  0  0
   -0.5506  -10.0852    0.9944 H   0  0  0  0  0  0  0  0  0  0  0  0
    1.0815  -11.1056   -2.2081 H   0  0  0  0  0  0  0  0  0  0  0  0
   -0.1507   -9.9516   -2.7098 H   0  0  0  0  0  0  0  0  0  0  0  0
    1.5643   -9.4856   -2.7330 H   0  0  0  0  0  0  0  0  0  0  0  0
    7.6946  -13.4113    2.3213 H   0  0  0  0  0  0  0  0  0  0  0  0
    6.1659  -14.3068    2.1657 H   0  0  0  0  0  0  0  0  0  0  0  0
    7.3509  -14.7820    3.3884 H   0  0  0  0  0  0  0  0  0  0  0  0
    7.8538   -2.5353   -1.8294 H   0  0  0  0  0  0  0  0  0  0  0  0
    6.5307   -1.7651   -2.7376 H   0  0  0  0  0  0  0  0  0  0  0  0
    8.1382   -1.0465   -2.7503 H   0  0  0  0  0  0  0  0  0  0  0  0
   19.7984  -11.1834    2.2868 H   0  0  0  0  0  0  0  0  0  0  0  0
   16.1628  -11.0349    4.5722 H   0  0  0  0  0  0  0  0  0  0  0  0
    9.1895   -5.1069   -3.7055 H   0  0  0  0  0  0  0  0  0  0  0  0
    8.2254   -7.7606   -0.5517 H   0  0  0  0  0  0  0  0  0  0  0  0
    7.4668   -6.2750   -2.3504 H   0  0  0  0  0  0  0  0  0  0  0  0
   18.6366  -11.2020    4.4794 H   0  0  0  0  0  0  0  0  0  0  0  0
  1  2  1  1  0  0  0
  1  3  1  0  0  0  0
  1  4  1  0  0  0  0
  1  5  1  0  0  0  0
  2 13  1  0  0  0  0
  2 42  1  0  0  0  0
  3  4  1  0  0  0  0
  4 50  1  0  0  0  0
  4 51  1  0  0  0  0
  5 19  1  0  0  0  0
  5 30  2  0  0  0  0
  6 28  1  0  0  0  0
  6  9  1  0  0  0  0
  6 45  1  0  0  0  0
  7 10  1  0  0  0  0
  7 27  1  0  0  0  0
  7 46  1  0  0  0  0
  8 16  1  0  0  0  0
  8 31  2  0  0  0  0
  8 12  1  0  0  0  0
  9 23  1  0  0  0  0
  9 33  2  0  0  0  0
 10 24  1  0  0  0  0
 10 32  2  0  0  0  0
 11 18  1  0  0  0  0
 11 16  1  0  0  0  0
 11 52  1  0  0  0  0
 12 29  1  0  0  0  0
 12 49  1  0  0  0  0
 13 25  1  0  0  0  0
 13 37  2  0  0  0  0
 14 21  1  0  0  0  0
 14 28  1  0  0  0  0
 14 35  2  0  0  0  0
 15 27  1  0  0  0  0
 15 22  1  0  0  0  0
 15 36  2  0  0  0  0
 16 34  1  0  0  0  0
 16104  1  6  0  0  0
 17 23  1  0  0  0  0
 17 20  1  0  0  0  0
 17103  1  0  0  0  0
 18 26  1  0  0  0  0
 18 38  2  0  0  0  0
 19 24  1  0  0  0  0
 20 29  1  0  0  0  0
 20 39  2  0  0  0  0
 21 25  1  0  0  0  0
 21102  1  0  0  0  0
 22 26  1  0  0  0  0
 22 97  1  0  0  0  0
 23 43  1  0  0  0  0
 23 82  1  6  0  0  0
 24 44  1  0  0  0  0
 24 81  1  1  0  0  0
 25 41  1  0  0  0  0
 25 92  1  1  0  0  0
 26 40  1  0  0  0  0
 26112  1  1  0  0  0
 27 47  1  0  0  0  0
 27 93  1  1  0  0  0
 28 48  1  0  0  0  0
 28 98  1  1  0  0  0
 29 55  1  0  0  0  0
 29 80  1  6  0  0  0
 34 53  1  0  0  0  0
 34110  1  0  0  0  0
 34111  1  0  0  0  0
 40 54  1  0  0  0  0
 40117  1  0  0  0  0
 40118  1  0  0  0  0
 41 57  1  0  0  0  0
 41115  1  0  0  0  0
 41116  1  0  0  0  0
 42 83  1  0  0  0  0
 42 84  1  0  0  0  0
 42 85  1  0  0  0  0
 43 58  1  0  0  0  0
 43 61  1  0  0  0  0
 43113  1  6  0  0  0
 44 59  1  0  0  0  0
 44 60  1  0  0  0  0
 44114  1  6  0  0  0
 45 99  1  0  0  0  0
 45100  1  0  0  0  0
 45101  1  0  0  0  0
 46 94  1  0  0  0  0
 46 95  1  0  0  0  0
 46 96  1  0  0  0  0
 47 63  1  0  0  0  0
 47 64  1  0  0  0  0
 47119  1  0  0  0  0
 48 62  1  0  0  0  0
 48 65  1  0  0  0  0
 48120  1  0  0  0  0
 49 56  1  0  0  0  0
 49108  1  0  0  0  0
 49109  1  0  0  0  0
 50 86  1  0  0  0  0
 50 87  1  0  0  0  0
 50 88  1  0  0  0  0
 51 89  1  0  0  0  0
 51 90  1  0  0  0  0
 51 91  1  0  0  0  0
 52105  1  0  0  0  0
 52106  1  0  0  0  0
 52107  1  0  0  0  0
 53 66  1  0  0  0  0
 53 67  2  0  0  0  0
 54 68  2  0  0  0  0
 54 69  1  0  0  0  0
 55 56  1  0  0  0  0
 55121  1  0  0  0  0
 55122  1  0  0  0  0
 56146  1  0  0  0  0
 56147  1  0  0  0  0
 57 70  1  0  0  0  0
 57 71  1  0  0  0  0
 57123  1  0  0  0  0
 58 72  1  0  0  0  0
 58124  1  0  0  0  0
 58125  1  0  0  0  0
 59 73  1  0  0  0  0
 59129  1  0  0  0  0
 59130  1  0  0  0  0
 60131  1  0  0  0  0
 60132  1  0  0  0  0
 60133  1  0  0  0  0
 61126  1  0  0  0  0
 61127  1  0  0  0  0
 61128  1  0  0  0  0
 62140  1  0  0  0  0
 62141  1  0  0  0  0
 62142  1  0  0  0  0
 63134  1  0  0  0  0
 63135  1  0  0  0  0
 63136  1  0  0  0  0
 64137  1  0  0  0  0
 64138  1  0  0  0  0
 64139  1  0  0  0  0
 65143  1  0  0  0  0
 65144  1  0  0  0  0
 65145  1  0  0  0  0
 66 77  2  0  0  0  0
 66148  1  0  0  0  0
 67 76  1  0  0  0  0
 67149  1  0  0  0  0
 68 74  1  0  0  0  0
 68150  1  0  0  0  0
 69 75  2  0  0  0  0
 69151  1  0  0  0  0
 70152  1  0  0  0  0
 70153  1  0  0  0  0
 70154  1  0  0  0  0
 71155  1  0  0  0  0
 71156  1  0  0  0  0
 71157  1  0  0  0  0
 72158  1  0  0  0  0
 72159  1  0  0  0  0
 72160  1  0  0  0  0
 73161  1  0  0  0  0
 73162  1  0  0  0  0
 73163  1  0  0  0  0
 74 78  2  0  0  0  0
 74166  1  0  0  0  0
 75 78  1  0  0  0  0
 75167  1  0  0  0  0
 76 79  2  0  0  0  0
 76165  1  0  0  0  0
 77 79  1  0  0  0  0
 77164  1  0  0  0  0
 78168  1  0  0  0  0
 79169  1  0  0  0  0
M  END
>  <MOL Chiral Flag>
1

>  <energy>
2181.9328756069167

>  <Formula>
C60 H90 N8 O11

>  <Mw>
1099.404

>  <SMILES>
[C@@]12(C(=O)O[C@]([H])([C@@]([H])(C([H])([H])[H])C([H])([H])C([H])([H])[H])C(=O)[N@@](C([H])([H])[H])[C@@]([H])(C([H])(C([H])([H])[H])C([H])([H])[H])C(=O)N([H])[C@@]([H])(C([H])([H])C3C([H])=C([H])C([H])=C([H])C=3[H])C(=O)N(C([H])([H])[H])[C@@]([H])(C([H])([H])C3=C([H])C([H])=C([H])C([H])=C3[H])C([N@@]3C([H])([H])C([H])([H])C([H])([H])[C@@]3([H])C(=O)N([H])[C@@]([H])([C@@]([H])(C([H])([H])[H])C([H])([H])C([H])([H])[H])C(=O)N(C([H])([H])[H])[C@@]([H])(C([H])(C([H])([H])[H])C([H])([H])[H])C(=O)[N@@]([H])[C@@]([H])(C([H])([H])C([H])(C([H])([H])[H])C([H])([H])[H])C(=O)[N@@]1C([H])([H])[H])=O)C(C([H])([H])[H])(C([H])([H])[H])O2

>  <CSID>
30809022

$$$$
