58
 OpenBabel03292021493D

162164  0  0  1  0  0  0  0  0999 V2000
    7.2113   -3.2390   -2.0122 C   0  0  0  0  0  0  0  0  0  0  0  0
    6.2495   -3.3187   -3.2071 C   0  0  0  0  0  0  0  0  0  0  0  0
    6.6855   -3.1407   -4.7560 C   0  0  2  0  0  0  0  0  0  0  0  0
    8.1385   -2.7837   -4.7244 C   0  0  0  0  0  0  0  0  0  0  0  0
    5.9761   -4.2989   -5.7713 C   0  0  2  0  0  0  0  0  0  0  0  0
    6.1962   -4.4450   -7.4270 N   0  0  0  0  0  0  0  0  0  0  0  0
    6.1885   -5.6363   -8.1969 C   0  0  0  0  0  0  0  0  0  0  0  0
    6.1389   -6.6075   -7.4542 O   0  0  0  0  0  0  0  0  0  0  0  0
    6.1632   -6.0234  -10.0110 C   0  0  2  0  0  0  0  0  0  0  0  0
    7.3808   -6.0970  -10.9837 C   0  0  0  0  0  0  0  0  0  0  0  0
    7.0071   -5.3256  -12.2705 C   0  0  0  0  0  0  0  0  0  0  0  0
    5.5780   -4.8750  -12.0564 C   0  0  0  0  0  0  0  0  0  0  0  0
    5.0836   -5.8556  -11.1148 N   0  0  0  0  0  0  0  0  0  0  0  0
    4.2399   -6.7554  -11.8012 C   0  0  0  0  0  0  0  0  0  0  0  0
    3.4553   -6.3132  -12.6631 O   0  0  0  0  0  0  0  0  0  0  0  0
    4.2607   -8.2966  -11.6974 C   0  0  1  0  0  0  0  0  0  0  0  0
    5.5239   -8.9600  -12.2500 C   0  0  0  0  0  0  0  0  0  0  0  0
    3.7280   -8.7322  -10.4208 N   0  0  0  0  0  0  0  0  0  0  0  0
    2.4144   -9.3707  -10.4309 C   0  0  0  0  0  0  0  0  0  0  0  0
    4.5902   -8.9072   -9.3765 C   0  0  0  0  0  0  0  0  0  0  0  0
    5.7069   -9.3552   -9.5896 O   0  0  0  0  0  0  0  0  0  0  0  0
    4.1313   -8.5660   -7.9644 C   0  0  2  0  0  0  0  0  0  0  0  0
    3.3139   -7.2203   -7.6787 C   0  0  0  0  0  0  0  0  0  0  0  0
    2.6323   -6.3443   -8.7491 C   0  0  0  0  0  0  0  0  0  0  0  0
    1.3776   -6.6232   -9.3032 C   0  0  0  0  0  0  0  0  0  0  0  0
    0.7989   -5.8126  -10.3082 C   0  0  0  0  0  0  0  0  0  0  0  0
    1.4668   -4.6823  -10.7725 C   0  0  0  0  0  0  0  0  0  0  0  0
    0.9639   -3.8654  -11.7352 O   0  0  0  0  0  0  0  0  0  0  0  0
    2.6665   -4.3473  -10.2018 C   0  0  0  0  0  0  0  0  0  0  0  0
    3.2056   -5.1394   -9.1745 C   0  0  0  0  0  0  0  0  0  0  0  0
    5.1996   -8.9468   -6.9386 N   0  0  0  0  0  0  0  0  0  0  0  0
    6.5310   -9.3265   -6.9830 C   0  0  0  0  0  0  0  0  0  0  0  0
    6.7861  -10.1851   -6.1113 O   0  0  0  0  0  0  0  0  0  0  0  0
    7.7891   -8.7031   -7.8453 C   0  0  2  0  0  0  0  0  0  0  0  0
    8.7187   -9.8553   -8.4284 C   0  0  0  0  0  0  0  0  0  0  0  0
    9.9047   -9.3274   -9.2499 C   0  0  0  0  0  0  0  0  0  0  0  0
    7.9911  -10.8695   -9.3233 C   0  0  0  0  0  0  0  0  0  0  0  0
    8.6616   -7.7628   -6.9688 N   0  0  0  0  0  0  0  0  0  0  0  0
    9.1031   -8.3532   -5.7179 C   0  0  0  0  0  0  0  0  0  0  0  0
    9.2931   -6.6209   -7.5165 C   0  0  0  0  0  0  0  0  0  0  0  0
    9.4363   -6.5190   -8.7427 O   0  0  0  0  0  0  0  0  0  0  0  0
    9.7762   -5.3501   -6.6398 C   0  0  1  0  0  0  0  0  0  0  0  0
   10.7343   -5.7495   -5.4692 C   0  0  1  0  0  0  0  0  0  0  0  0
   12.0396   -6.3713   -5.9727 C   0  0  0  0  0  0  0  0  0  0  0  0
   11.0700   -4.6254   -4.4839 C   0  0  0  0  0  0  0  0  0  0  0  0
   11.6353   -5.1100   -3.1549 C   0  0  0  0  0  0  0  0  0  0  0  0
   10.4915   -4.3063   -7.4825 O   0  0  0  0  0  0  0  0  0  0  0  0
   10.2879   -2.9538   -7.7062 C   0  0  0  0  0  0  0  0  0  0  0  0
   11.2443   -2.1787   -7.6547 O   0  0  0  0  0  0  0  0  0  0  0  0
    8.8851   -2.4583   -8.2259 C   0  0  2  0  0  0  0  0  0  0  0  0
    8.5779   -2.9885   -9.6383 C   0  0  0  0  0  0  0  0  0  0  0  0
    7.2436   -2.5280  -10.2593 C   0  0  0  0  0  0  0  0  0  0  0  0
    9.6859   -2.8120  -10.6788 C   0  0  0  0  0  0  0  0  0  0  0  0
    8.3758   -4.3511   -9.3871 O   0  0  0  0  0  0  0  0  0  0  0  0
    8.3563   -1.0489   -8.0517 N   0  0  0  0  0  0  0  0  0  0  0  0
    8.9272   -0.0212   -8.9133 C   0  0  0  0  0  0  0  0  0  0  0  0
    7.0634   -0.9847   -7.5872 C   0  0  0  0  0  0  0  0  0  0  0  0
    6.3728   -1.9802   -7.5395 O   0  0  0  0  0  0  0  0  0  0  0  0
    6.4032    0.3236   -7.0577 C   0  0  2  0  0  0  0  0  0  0  0  0
    7.0785    0.8473   -5.7540 C   0  0  0  0  0  0  0  0  0  0  0  0
    8.5297    1.4020   -5.9033 C   0  0  0  0  0  0  0  0  0  0  0  0
    8.8251    2.5174   -4.8990 C   0  0  0  0  0  0  0  0  0  0  0  0
    9.6452    0.3598   -5.7516 C   0  0  0  0  0  0  0  0  0  0  0  0
    4.8854    0.2304   -6.9603 N   0  0  0  0  0  0  0  0  0  0  0  0
    4.0752   -0.4590   -6.0752 C   0  0  0  0  0  0  0  0  0  0  0  0
    3.5032    0.2486   -5.2304 O   0  0  0  0  0  0  0  0  0  0  0  0
    3.6827   -2.0020   -6.2368 C   0  0  2  0  0  0  0  0  0  0  0  0
    2.1243   -2.1651   -6.5068 C   0  0  0  0  0  0  0  0  0  0  0  0
    1.4456   -3.4656   -5.9781 C   0  0  0  0  0  0  0  0  0  0  0  0
    1.9063   -2.1813   -8.0001 C   0  0  0  0  0  0  0  0  0  0  0  0
    4.0002   -2.8043   -5.0527 N   0  0  0  0  0  0  0  0  0  0  0  0
    3.3547   -2.3862   -3.7903 C   0  0  0  0  0  0  0  0  0  0  0  0
    4.4678   -4.1405   -5.2358 C   0  0  0  0  0  0  0  0  0  0  0  0
    3.8806   -5.0989   -4.7254 O   0  0  0  0  0  0  0  0  0  0  0  0
    7.5633   -2.2142   -1.8444 H   0  0  0  0  0  0  0  0  0  0  0  0
    8.0618   -3.9177   -2.0845 H   0  0  0  0  0  0  0  0  0  0  0  0
    6.6650   -3.5249   -1.1007 H   0  0  0  0  0  0  0  0  0  0  0  0
    5.5908   -2.4782   -2.9854 H   0  0  0  0  0  0  0  0  0  0  0  0
    5.6808   -4.2417   -3.0751 H   0  0  0  0  0  0  0  0  0  0  0  0
    6.2312   -2.1983   -5.0772 H   0  0  0  0  0  0  0  0  0  0  0  0
    8.6314   -3.3641   -3.9655 H   0  0  0  0  0  0  0  0  0  0  0  0
    8.2533   -1.7465   -4.3825 H   0  0  0  0  0  0  0  0  0  0  0  0
    8.6625   -2.8762   -5.6542 H   0  0  0  0  0  0  0  0  0  0  0  0
    6.3365   -5.2640   -5.3886 H   0  0  0  0  0  0  0  0  0  0  0  0
    6.5182   -3.5898   -7.8619 H   0  0  0  0  0  0  0  0  0  0  0  0
    6.0198   -7.0780   -9.8166 H   0  0  0  0  0  0  0  0  0  0  0  0
    7.5159   -7.1387  -11.2911 H   0  0  0  0  0  0  0  0  0  0  0  0
    8.3908   -5.8700  -10.6956 H   0  0  0  0  0  0  0  0  0  0  0  0
    7.0650   -6.0087  -13.1281 H   0  0  0  0  0  0  0  0  0  0  0  0
    7.6682   -4.4913  -12.5030 H   0  0  0  0  0  0  0  0  0  0  0  0
    5.0588   -4.8465  -13.0249 H   0  0  0  0  0  0  0  0  0  0  0  0
    5.4667   -3.8911  -11.6164 H   0  0  0  0  0  0  0  0  0  0  0  0
    3.4992   -8.6132  -12.4321 H   0  0  0  0  0  0  0  0  0  0  0  0
    6.4218   -8.7171  -11.6911 H   0  0  0  0  0  0  0  0  0  0  0  0
    5.7043   -8.6407  -13.2818 H   0  0  0  0  0  0  0  0  0  0  0  0
    5.4264  -10.0500  -12.2446 H   0  0  0  0  0  0  0  0  0  0  0  0
    2.4963  -10.3196  -10.9685 H   0  0  0  0  0  0  0  0  0  0  0  0
    1.7060   -8.7275  -10.9601 H   0  0  0  0  0  0  0  0  0  0  0  0
    2.0573   -9.5779   -9.4256 H   0  0  0  0  0  0  0  0  0  0  0  0
    3.3873   -9.3528   -7.7612 H   0  0  0  0  0  0  0  0  0  0  0  0
    2.5038   -7.4977   -6.9876 H   0  0  0  0  0  0  0  0  0  0  0  0
    3.9112   -6.5535   -7.0528 H   0  0  0  0  0  0  0  0  0  0  0  0
    0.8092   -7.4801   -8.9520 H   0  0  0  0  0  0  0  0  0  0  0  0
   -0.1773   -6.0581  -10.7110 H   0  0  0  0  0  0  0  0  0  0  0  0
    0.4409   -4.4117  -12.3430 H   0  0  0  0  0  0  0  0  0  0  0  0
    3.1894   -3.4443  -10.5285 H   0  0  0  0  0  0  0  0  0  0  0  0
    4.0847   -4.7438   -8.6950 H   0  0  0  0  0  0  0  0  0  0  0  0
    4.7875   -9.4047   -6.1387 H   0  0  0  0  0  0  0  0  0  0  0  0
    7.4322   -8.1141   -8.6829 H   0  0  0  0  0  0  0  0  0  0  0  0
    9.1268  -10.4259   -7.5915 H   0  0  0  0  0  0  0  0  0  0  0  0
    9.5662   -8.6731  -10.0629 H   0  0  0  0  0  0  0  0  0  0  0  0
   10.4630  -10.1497   -9.7090 H   0  0  0  0  0  0  0  0  0  0  0  0
   10.6184   -8.7843   -8.6223 H   0  0  0  0  0  0  0  0  0  0  0  0
    7.7051  -10.4237  -10.2816 H   0  0  0  0  0  0  0  0  0  0  0  0
    7.1093  -11.2930   -8.8370 H   0  0  0  0  0  0  0  0  0  0  0  0
    8.6572  -11.7068   -9.5624 H   0  0  0  0  0  0  0  0  0  0  0  0
    8.8716   -9.4163   -5.6544 H   0  0  0  0  0  0  0  0  0  0  0  0
    8.6264   -7.8415   -4.8823 H   0  0  0  0  0  0  0  0  0  0  0  0
   10.1927   -8.3180   -5.6643 H   0  0  0  0  0  0  0  0  0  0  0  0
    8.8656   -4.8963   -6.2522 H   0  0  0  0  0  0  0  0  0  0  0  0
   10.2139   -6.4760   -4.8544 H   0  0  0  0  0  0  0  0  0  0  0  0
   12.7612   -5.6011   -6.2640 H   0  0  0  0  0  0  0  0  0  0  0  0
   11.8812   -7.0318   -6.8298 H   0  0  0  0  0  0  0  0  0  0  0  0
   12.4960   -6.9756   -5.1808 H   0  0  0  0  0  0  0  0  0  0  0  0
   10.1523   -4.1437   -4.2248 H   0  0  0  0  0  0  0  0  0  0  0  0
   11.7096   -3.8614   -4.9304 H   0  0  0  0  0  0  0  0  0  0  0  0
   10.9938   -5.8750   -2.7080 H   0  0  0  0  0  0  0  0  0  0  0  0
   11.6881   -4.2765   -2.4464 H   0  0  0  0  0  0  0  0  0  0  0  0
   12.6383   -5.5202   -3.2716 H   0  0  0  0  0  0  0  0  0  0  0  0
    8.2955   -3.0344   -7.5331 H   0  0  0  0  0  0  0  0  0  0  0  0
    7.2118   -2.7944  -11.3146 H   0  0  0  0  0  0  0  0  0  0  0  0
    7.0517   -1.4577  -10.2449 H   0  0  0  0  0  0  0  0  0  0  0  0
    6.3814   -3.0235   -9.7993 H   0  0  0  0  0  0  0  0  0  0  0  0
    9.4614   -3.4038  -11.5754 H   0  0  0  0  0  0  0  0  0  0  0  0
   10.6502   -3.1774  -10.3250 H   0  0  0  0  0  0  0  0  0  0  0  0
    9.7900   -1.7704  -10.9903 H   0  0  0  0  0  0  0  0  0  0  0  0
    9.2277   -4.8409   -9.3372 H   0  0  0  0  0  0  0  0  0  0  0  0
   10.0200   -0.0756   -8.9065 H   0  0  0  0  0  0  0  0  0  0  0  0
    8.5976    0.9745   -8.6381 H   0  0  0  0  0  0  0  0  0  0  0  0
    8.5791   -0.1568   -9.9421 H   0  0  0  0  0  0  0  0  0  0  0  0
    6.5469    1.0747   -7.8432 H   0  0  0  0  0  0  0  0  0  0  0  0
    6.4466    1.6692   -5.3852 H   0  0  0  0  0  0  0  0  0  0  0  0
    7.0492    0.0789   -4.9751 H   0  0  0  0  0  0  0  0  0  0  0  0
    8.6098    1.8742   -6.8839 H   0  0  0  0  0  0  0  0  0  0  0  0
    8.7832    2.1443   -3.8719 H   0  0  0  0  0  0  0  0  0  0  0  0
    8.1168    3.3412   -5.0071 H   0  0  0  0  0  0  0  0  0  0  0  0
    9.8317    2.9179   -5.0749 H   0  0  0  0  0  0  0  0  0  0  0  0
   10.0403    0.3134   -4.7313 H   0  0  0  0  0  0  0  0  0  0  0  0
   10.4854    0.6054   -6.4128 H   0  0  0  0  0  0  0  0  0  0  0  0
    9.3307   -0.6493   -5.9897 H   0  0  0  0  0  0  0  0  0  0  0  0
    4.5721    1.1917   -6.8413 H   0  0  0  0  0  0  0  0  0  0  0  0
    4.2216   -2.4188   -7.0844 H   0  0  0  0  0  0  0  0  0  0  0  0
    1.5788   -1.3118   -6.0898 H   0  0  0  0  0  0  0  0  0  0  0  0
    1.9888   -4.3673   -6.2862 H   0  0  0  0  0  0  0  0  0  0  0  0
    0.4264   -3.5671   -6.3599 H   0  0  0  0  0  0  0  0  0  0  0  0
    1.3448   -3.5075   -4.8873 H   0  0  0  0  0  0  0  0  0  0  0  0
    2.4327   -1.3882   -8.5301 H   0  0  0  0  0  0  0  0  0  0  0  0
    0.8486   -2.1879   -8.2729 H   0  0  0  0  0  0  0  0  0  0  0  0
    2.3193   -3.1206   -8.3182 H   0  0  0  0  0  0  0  0  0  0  0  0
    2.3146   -2.0864   -3.9160 H   0  0  0  0  0  0  0  0  0  0  0  0
    3.8669   -1.4903   -3.4201 H   0  0  0  0  0  0  0  0  0  0  0  0
    3.4113   -3.1696   -3.0307 H   0  0  0  0  0  0  0  0  0  0  0  0
  1  2  1  0  0  0  0
  1 75  1  0  0  0  0
  1 76  1  0  0  0  0
  1 77  1  0  0  0  0
  2 78  1  0  0  0  0
  2 79  1  0  0  0  0
  3  4  1  0  0  0  0
  3  2  1  0  0  0  0
  3 80  1  1  0  0  0
  4 81  1  0  0  0  0
  4 82  1  0  0  0  0
  4 83  1  0  0  0  0
  5  6  1  0  0  0  0
  5 73  1  0  0  0  0
  5  3  1  0  0  0  0
  5 84  1  1  0  0  0
  6  7  1  0  0  0  0
  6 85  1  0  0  0  0
  7  8  2  0  0  0  0
  7  9  1  0  0  0  0
  9 10  1  0  0  0  0
  9 13  1  0  0  0  0
  9 86  1  1  0  0  0
 10 11  1  0  0  0  0
 10 87  1  0  0  0  0
 10 88  1  0  0  0  0
 11 12  1  0  0  0  0
 11 89  1  0  0  0  0
 11 90  1  0  0  0  0
 12 13  1  0  0  0  0
 12 91  1  0  0  0  0
 12 92  1  0  0  0  0
 13 14  1  0  0  0  0
 14 15  2  0  0  0  0
 14 16  1  0  0  0  0
 16 17  1  0  0  0  0
 16 18  1  0  0  0  0
 16 93  1  6  0  0  0
 17 94  1  0  0  0  0
 17 95  1  0  0  0  0
 17 96  1  0  0  0  0
 18 19  1  0  0  0  0
 18 20  1  0  0  0  0
 19 97  1  0  0  0  0
 19 98  1  0  0  0  0
 19 99  1  0  0  0  0
 20 21  2  0  0  0  0
 20 22  1  0  0  0  0
 22 31  1  0  0  0  0
 22 23  1  0  0  0  0
 22100  1  1  0  0  0
 23 24  1  0  0  0  0
 23101  1  0  0  0  0
 23102  1  0  0  0  0
 24 25  1  0  0  0  0
 24 30  2  0  0  0  0
 25 26  2  0  0  0  0
 25103  1  0  0  0  0
 26 27  1  0  0  0  0
 26104  1  0  0  0  0
 27 28  1  0  0  0  0
 27 29  2  0  0  0  0
 28105  1  0  0  0  0
 29 30  1  0  0  0  0
 29106  1  0  0  0  0
 30107  1  0  0  0  0
 31 32  1  0  0  0  0
 31108  1  0  0  0  0
 32 33  2  0  0  0  0
 32 34  1  0  0  0  0
 34 38  1  0  0  0  0
 34 35  1  0  0  0  0
 34109  1  6  0  0  0
 35 36  1  0  0  0  0
 35 37  1  0  0  0  0
 35110  1  0  0  0  0
 36111  1  0  0  0  0
 36112  1  0  0  0  0
 36113  1  0  0  0  0
 37114  1  0  0  0  0
 37115  1  0  0  0  0
 37116  1  0  0  0  0
 38 39  1  0  0  0  0
 38 40  1  0  0  0  0
 39117  1  0  0  0  0
 39118  1  0  0  0  0
 39119  1  0  0  0  0
 40 41  2  0  0  0  0
 40 42  1  0  0  0  0
 42 43  1  0  0  0  0
 42 47  1  0  0  0  0
 42120  1  1  0  0  0
 43 44  1  0  0  0  0
 43 45  1  0  0  0  0
 43121  1  1  0  0  0
 44122  1  0  0  0  0
 44123  1  0  0  0  0
 44124  1  0  0  0  0
 45 46  1  0  0  0  0
 45125  1  0  0  0  0
 45126  1  0  0  0  0
 46127  1  0  0  0  0
 46128  1  0  0  0  0
 46129  1  0  0  0  0
 47 48  1  0  0  0  0
 48 49  2  0  0  0  0
 48 50  1  0  0  0  0
 50 55  1  0  0  0  0
 50 51  1  0  0  0  0
 50130  1  1  0  0  0
 51 52  1  0  0  0  0
 51 53  1  0  0  0  0
 51 54  1  0  0  0  0
 52131  1  0  0  0  0
 52132  1  0  0  0  0
 52133  1  0  0  0  0
 53134  1  0  0  0  0
 53135  1  0  0  0  0
 53136  1  0  0  0  0
 54137  1  0  0  0  0
 55 56  1  0  0  0  0
 55 57  1  0  0  0  0
 56138  1  0  0  0  0
 56139  1  0  0  0  0
 56140  1  0  0  0  0
 57 58  2  0  0  0  0
 57 59  1  0  0  0  0
 59 64  1  0  0  0  0
 59 60  1  0  0  0  0
 59141  1  6  0  0  0
 60 61  1  0  0  0  0
 60142  1  0  0  0  0
 60143  1  0  0  0  0
 61 62  1  0  0  0  0
 61 63  1  0  0  0  0
 61144  1  0  0  0  0
 62145  1  0  0  0  0
 62146  1  0  0  0  0
 62147  1  0  0  0  0
 63148  1  0  0  0  0
 63149  1  0  0  0  0
 63150  1  0  0  0  0
 64 65  1  0  0  0  0
 64151  1  0  0  0  0
 65 66  2  0  0  0  0
 65 67  1  0  0  0  0
 67 71  1  0  0  0  0
 67 68  1  0  0  0  0
 67152  1  6  0  0  0
 68 69  1  0  0  0  0
 68 70  1  0  0  0  0
 68153  1  0  0  0  0
 69154  1  0  0  0  0
 69155  1  0  0  0  0
 69156  1  0  0  0  0
 70157  1  0  0  0  0
 70158  1  0  0  0  0
 70159  1  0  0  0  0
 71 72  1  0  0  0  0
 71 73  1  0  0  0  0
 72160  1  0  0  0  0
 72161  1  0  0  0  0
 72162  1  0  0  0  0
 73 74  2  0  0  0  0
M  END
>  <Energy>
632.466

$$$$