
 OpenBabel03292020533D

152153  0  0  1  0  0  0  0  0999 V2000
    6.5271    1.3418    3.0620 C   0  0  0  0  0  0  0  0  0  0  0  0
    6.4421    0.6038    4.4024 C   0  0  0  0  0  0  0  0  0  0  0  0
    6.2026    1.3228    5.8538 C   0  0  2  0  0  0  0  0  0  0  0  0
    5.4383    2.6129    5.5417 C   0  0  0  0  0  0  0  0  0  0  0  0
    5.3326    0.4043    6.9283 C   0  0  2  0  0  0  0  0  0  0  0  0
    5.1355    0.4472    8.4964 N   0  0  0  0  0  0  0  0  0  0  0  0
    5.9273   -0.0441    9.5519 C   0  0  0  0  0  0  0  0  0  0  0  0
    7.1072   -0.1952    9.2626 O   0  0  0  0  0  0  0  0  0  0  0  0
    5.4535   -0.0785   11.2146 C   0  0  2  0  0  0  0  0  0  0  0  0
    6.5691   -0.7486   12.0651 C   0  0  0  0  0  0  0  0  0  0  0  0
    5.9416   -1.9466   12.7956 C   0  0  0  0  0  0  0  0  0  0  0  0
    4.5948   -2.0919   12.1133 C   0  0  0  0  0  0  0  0  0  0  0  0
    4.2486   -0.6934   11.8807 N   0  0  0  0  0  0  0  0  0  0  0  0
    3.5211   -0.2682   13.0190 C   0  0  0  0  0  0  0  0  0  0  0  0
    2.4645   -0.8736   13.2834 O   0  0  0  0  0  0  0  0  0  0  0  0
    3.9096    0.8681   14.0311 C   0  0  1  0  0  0  0  0  0  0  0  0
    5.1317    0.7051   14.9508 C   0  0  0  0  0  0  0  0  0  0  0  0
    3.6928    2.1800   13.4157 N   0  0  0  0  0  0  0  0  0  0  0  0
    2.2936    2.5482   13.2347 C   0  0  0  0  0  0  0  0  0  0  0  0
    4.7719    2.8177   12.8505 C   0  0  0  0  0  0  0  0  0  0  0  0
    5.9108    2.4874   13.1574 O   0  0  0  0  0  0  0  0  0  0  0  0
    4.5590    3.7861   11.6917 C   0  0  2  0  0  0  0  0  0  0  0  0
    4.1562    2.9956   10.4386 C   0  0  0  0  0  0  0  0  0  0  0  0
    3.4917    3.8130    9.4848 O   0  0  0  0  0  0  0  0  0  0  0  0
    5.7127    4.6780   11.4348 N   0  0  0  0  0  0  0  0  0  0  0  0
    6.8440    4.3540   10.7315 C   0  0  0  0  0  0  0  0  0  0  0  0
    7.0050    5.0672    9.7311 O   0  0  0  0  0  0  0  0  0  0  0  0
    7.9038    3.2544   11.1906 C   0  0  2  0  0  0  0  0  0  0  0  0
    8.7928    3.7464   12.3998 C   0  0  0  0  0  0  0  0  0  0  0  0
    9.8657    2.7226   12.8004 C   0  0  0  0  0  0  0  0  0  0  0  0
    8.0592    4.1377   13.6901 C   0  0  0  0  0  0  0  0  0  0  0  0
    8.7669    2.8732    9.9881 N   0  0  0  0  0  0  0  0  0  0  0  0
    9.4831    3.9945    9.3867 C   0  0  0  0  0  0  0  0  0  0  0  0
    9.1721    1.5275    9.8170 C   0  0  0  0  0  0  0  0  0  0  0  0
    9.0502    0.7519   10.7790 O   0  0  0  0  0  0  0  0  0  0  0  0
    9.6523    0.8854    8.4082 C   0  0  1  0  0  0  0  0  0  0  0  0
   10.5315    1.8167    7.5376 C   0  0  1  0  0  0  0  0  0  0  0  0
   11.9136    2.0473    8.1654 C   0  0  0  0  0  0  0  0  0  0  0  0
   10.6678    1.3885    6.0646 C   0  0  0  0  0  0  0  0  0  0  0  0
   11.2794    2.5041    5.2106 C   0  0  0  0  0  0  0  0  0  0  0  0
   10.3892   -0.3832    8.6581 O   0  0  0  0  0  0  0  0  0  0  0  0
   10.1777   -1.6001    8.0477 C   0  0  0  0  0  0  0  0  0  0  0  0
   11.0635   -2.0968    7.3513 O   0  0  0  0  0  0  0  0  0  0  0  0
    8.9025   -2.4117    8.4592 C   0  0  2  0  0  0  0  0  0  0  0  0
    8.9860   -2.9533    9.9385 C   0  0  0  0  0  0  0  0  0  0  0  0
    7.6499   -3.5475   10.4128 C   0  0  0  0  0  0  0  0  0  0  0  0
   10.0096   -4.0617   10.1926 C   0  0  0  0  0  0  0  0  0  0  0  0
    9.3792   -1.9361   10.8641 O   0  0  0  0  0  0  0  0  0  0  0  0
    8.3496   -3.4473    7.4985 N   0  0  0  0  0  0  0  0  0  0  0  0
    9.2317   -4.5365    7.1078 C   0  0  0  0  0  0  0  0  0  0  0  0
    6.9432   -3.5282    7.3682 C   0  0  0  0  0  0  0  0  0  0  0  0
    6.2151   -2.9408    8.1772 O   0  0  0  0  0  0  0  0  0  0  0  0
    6.2516   -4.3623    6.2251 C   0  0  2  0  0  0  0  0  0  0  0  0
    6.9043   -4.1307    4.8276 C   0  0  0  0  0  0  0  0  0  0  0  0
    6.5635   -4.9995    3.6037 C   0  0  0  0  0  0  0  0  0  0  0  0
    5.2623   -4.5778    2.9336 C   0  0  0  0  0  0  0  0  0  0  0  0
    7.7049   -4.8424    2.5709 C   0  0  0  0  0  0  0  0  0  0  0  0
    4.7295   -4.4602    6.3017 N   0  0  0  0  0  0  0  0  0  0  0  0
    3.6015   -3.7456    6.6443 C   0  0  0  0  0  0  0  0  0  0  0  0
    2.5402   -4.3790    6.5310 O   0  0  0  0  0  0  0  0  0  0  0  0
    3.5251   -2.2502    7.1315 C   0  0  2  0  0  0  0  0  0  0  0  0
    2.1479   -1.6554    7.6483 C   0  0  0  0  0  0  0  0  0  0  0  0
    1.8631   -0.1689    7.2750 C   0  0  0  0  0  0  0  0  0  0  0  0
    2.0949   -1.7129    9.1827 C   0  0  0  0  0  0  0  0  0  0  0  0
    3.9975   -1.4049    6.0664 N   0  0  0  0  0  0  0  0  0  0  0  0
    3.4822   -1.6449    4.7232 C   0  0  0  0  0  0  0  0  0  0  0  0
    5.2893   -0.9807    6.2990 C   0  0  0  0  0  0  0  0  0  0  0  0
    6.2774   -1.5472    5.8643 O   0  0  0  0  0  0  0  0  0  0  0  0
    5.6820    2.0141    2.8932 H   0  0  0  0  0  0  0  0  0  0  0  0
    7.4705    1.8729    2.9306 H   0  0  0  0  0  0  0  0  0  0  0  0
    6.4698    0.5963    2.2495 H   0  0  0  0  0  0  0  0  0  0  0  0
    7.3405   -0.0249    4.4658 H   0  0  0  0  0  0  0  0  0  0  0  0
    5.6020   -0.0604    4.1994 H   0  0  0  0  0  0  0  0  0  0  0  0
    7.1866    1.5585    6.2676 H   0  0  0  0  0  0  0  0  0  0  0  0
    4.4776    2.3823    5.0657 H   0  0  0  0  0  0  0  0  0  0  0  0
    5.9964    3.2512    4.8512 H   0  0  0  0  0  0  0  0  0  0  0  0
    5.2465    3.1931    6.4779 H   0  0  0  0  0  0  0  0  0  0  0  0
    4.3479    0.8148    6.6896 H   0  0  0  0  0  0  0  0  0  0  0  0
    4.1903    0.6663    8.7879 H   0  0  0  0  0  0  0  0  0  0  0  0
    5.4363    0.9715   11.4567 H   0  0  0  0  0  0  0  0  0  0  0  0
    7.0220   -0.0525   12.7728 H   0  0  0  0  0  0  0  0  0  0  0  0
    7.3771   -1.0952   11.4532 H   0  0  0  0  0  0  0  0  0  0  0  0
    5.8186   -1.7176   13.8609 H   0  0  0  0  0  0  0  0  0  0  0  0
    6.5326   -2.8604   12.7705 H   0  0  0  0  0  0  0  0  0  0  0  0
    3.8960   -2.6367   12.7615 H   0  0  0  0  0  0  0  0  0  0  0  0
    4.6588   -2.6141   11.1564 H   0  0  0  0  0  0  0  0  0  0  0  0
    3.1091    0.8132   14.7881 H   0  0  0  0  0  0  0  0  0  0  0  0
    6.0736    0.5486   14.4325 H   0  0  0  0  0  0  0  0  0  0  0  0
    5.0069   -0.1509   15.6239 H   0  0  0  0  0  0  0  0  0  0  0  0
    5.2649    1.5929   15.5848 H   0  0  0  0  0  0  0  0  0  0  0  0
    1.7562    2.3942   14.1773 H   0  0  0  0  0  0  0  0  0  0  0  0
    1.8546    1.9102   12.4622 H   0  0  0  0  0  0  0  0  0  0  0  0
    2.1817    3.5952   12.9527 H   0  0  0  0  0  0  0  0  0  0  0  0
    3.7548    4.4751   11.9641 H   0  0  0  0  0  0  0  0  0  0  0  0
    5.0368    2.5723    9.9530 H   0  0  0  0  0  0  0  0  0  0  0  0
    3.4821    2.1651   10.6741 H   0  0  0  0  0  0  0  0  0  0  0  0
    4.1732    4.3723    9.0668 H   0  0  0  0  0  0  0  0  0  0  0  0
    5.3705    5.5437   11.0295 H   0  0  0  0  0  0  0  0  0  0  0  0
    7.3598    2.3493   11.4565 H   0  0  0  0  0  0  0  0  0  0  0  0
    9.3157    4.6567   12.0845 H   0  0  0  0  0  0  0  0  0  0  0  0
    9.4117    1.7636   13.0741 H   0  0  0  0  0  0  0  0  0  0  0  0
   10.4358    3.0706   13.6690 H   0  0  0  0  0  0  0  0  0  0  0  0
   10.5872    2.5585   11.9960 H   0  0  0  0  0  0  0  0  0  0  0  0
    7.7608    3.2590   14.2722 H   0  0  0  0  0  0  0  0  0  0  0  0
    7.1891    4.7716   13.5152 H   0  0  0  0  0  0  0  0  0  0  0  0
    8.7324    4.7081   14.3419 H   0  0  0  0  0  0  0  0  0  0  0  0
    9.3937    4.9023    9.9880 H   0  0  0  0  0  0  0  0  0  0  0  0
    9.0629    4.2143    8.4040 H   0  0  0  0  0  0  0  0  0  0  0  0
   10.5489    3.7889    9.3461 H   0  0  0  0  0  0  0  0  0  0  0  0
    8.7494    0.6423    7.8427 H   0  0  0  0  0  0  0  0  0  0  0  0
   10.0150    2.7695    7.4604 H   0  0  0  0  0  0  0  0  0  0  0  0
   12.6294    1.2798    7.8610 H   0  0  0  0  0  0  0  0  0  0  0  0
   11.8731    2.0491    9.2584 H   0  0  0  0  0  0  0  0  0  0  0  0
   12.3108    3.0221    7.8588 H   0  0  0  0  0  0  0  0  0  0  0  0
    9.6762    1.1580    5.6570 H   0  0  0  0  0  0  0  0  0  0  0  0
   11.2783    0.4848    5.9771 H   0  0  0  0  0  0  0  0  0  0  0  0
   10.6853    3.4234    5.2783 H   0  0  0  0  0  0  0  0  0  0  0  0
   11.3171    2.2078    4.1586 H   0  0  0  0  0  0  0  0  0  0  0  0
   12.3004    2.7424    5.5256 H   0  0  0  0  0  0  0  0  0  0  0  0
    8.1575   -1.6402    8.3879 H   0  0  0  0  0  0  0  0  0  0  0  0
    7.7159   -3.8754   11.4525 H   0  0  0  0  0  0  0  0  0  0  0  0
    7.3468   -4.4264    9.8345 H   0  0  0  0  0  0  0  0  0  0  0  0
    6.8470   -2.8149   10.3604 H   0  0  0  0  0  0  0  0  0  0  0  0
   10.0893   -4.2485   11.2726 H   0  0  0  0  0  0  0  0  0  0  0  0
   11.0074   -3.7721    9.8581 H   0  0  0  0  0  0  0  0  0  0  0  0
    9.7192   -5.0126    9.7374 H   0  0  0  0  0  0  0  0  0  0  0  0
    9.0701   -1.0514   10.5665 H   0  0  0  0  0  0  0  0  0  0  0  0
   10.1438   -4.5392    7.7025 H   0  0  0  0  0  0  0  0  0  0  0  0
    9.5534   -4.4210    6.0742 H   0  0  0  0  0  0  0  0  0  0  0  0
    8.7175   -5.4921    7.2495 H   0  0  0  0  0  0  0  0  0  0  0  0
    6.5203   -5.3949    6.4911 H   0  0  0  0  0  0  0  0  0  0  0  0
    6.8675   -3.0897    4.5132 H   0  0  0  0  0  0  0  0  0  0  0  0
    7.9679   -4.3114    4.9748 H   0  0  0  0  0  0  0  0  0  0  0  0
    6.5093   -6.0544    3.8938 H   0  0  0  0  0  0  0  0  0  0  0  0
    5.2906   -3.5188    2.6507 H   0  0  0  0  0  0  0  0  0  0  0  0
    4.4038   -4.7451    3.5927 H   0  0  0  0  0  0  0  0  0  0  0  0
    5.0937   -5.1543    2.0185 H   0  0  0  0  0  0  0  0  0  0  0  0
    7.7972   -3.7987    2.2404 H   0  0  0  0  0  0  0  0  0  0  0  0
    7.5337   -5.4588    1.6837 H   0  0  0  0  0  0  0  0  0  0  0  0
    8.6726   -5.1368    2.9958 H   0  0  0  0  0  0  0  0  0  0  0  0
    4.4088   -5.3643    5.9810 H   0  0  0  0  0  0  0  0  0  0  0  0
    4.2034   -2.1810    7.9793 H   0  0  0  0  0  0  0  0  0  0  0  0
    1.3168   -2.2376    7.2417 H   0  0  0  0  0  0  0  0  0  0  0  0
    2.5469    0.5215    7.7656 H   0  0  0  0  0  0  0  0  0  0  0  0
    0.8649    0.1327    7.6121 H   0  0  0  0  0  0  0  0  0  0  0  0
    1.8974    0.0248    6.1998 H   0  0  0  0  0  0  0  0  0  0  0  0
    3.0495   -1.4088    9.6196 H   0  0  0  0  0  0  0  0  0  0  0  0
    1.8653   -2.7215    9.5280 H   0  0  0  0  0  0  0  0  0  0  0  0
    1.3421   -1.0273    9.5910 H   0  0  0  0  0  0  0  0  0  0  0  0
    2.4065   -1.8428    4.7675 H   0  0  0  0  0  0  0  0  0  0  0  0
    4.0011   -2.4786    4.2556 H   0  0  0  0  0  0  0  0  0  0  0  0
    3.6276   -0.7505    4.1121 H   0  0  0  0  0  0  0  0  0  0  0  0
  1  2  1  0  0  0  0
  1 69  1  0  0  0  0
  1 70  1  0  0  0  0
  1 71  1  0  0  0  0
  2 72  1  0  0  0  0
  2 73  1  0  0  0  0
  3  4  1  0  0  0  0
  3  2  1  0  0  0  0
  3 74  1  6  0  0  0
  4 75  1  0  0  0  0
  4 76  1  0  0  0  0
  4 77  1  0  0  0  0
  5  6  1  0  0  0  0
  5 67  1  0  0  0  0
  5  3  1  0  0  0  0
  5 78  1  6  0  0  0
  6  7  1  0  0  0  0
  6 79  1  0  0  0  0
  7  8  2  0  0  0  0
  7  9  1  0  0  0  0
  9 10  1  0  0  0  0
  9 13  1  0  0  0  0
  9 80  1  1  0  0  0
 10 11  1  0  0  0  0
 10 81  1  0  0  0  0
 10 82  1  0  0  0  0
 11 12  1  0  0  0  0
 11 83  1  0  0  0  0
 11 84  1  0  0  0  0
 12 13  1  0  0  0  0
 12 85  1  0  0  0  0
 12 86  1  0  0  0  0
 13 14  1  0  0  0  0
 14 15  2  0  0  0  0
 14 16  1  0  0  0  0
 16 17  1  0  0  0  0
 16 18  1  0  0  0  0
 16 87  1  1  0  0  0
 17 88  1  0  0  0  0
 17 89  1  0  0  0  0
 17 90  1  0  0  0  0
 18 19  1  0  0  0  0
 18 20  1  0  0  0  0
 19 91  1  0  0  0  0
 19 92  1  0  0  0  0
 19 93  1  0  0  0  0
 20 21  2  0  0  0  0
 20 22  1  0  0  0  0
 22 25  1  0  0  0  0
 22 23  1  0  0  0  0
 22 94  1  1  0  0  0
 23 24  1  0  0  0  0
 23 95  1  0  0  0  0
 23 96  1  0  0  0  0
 24 97  1  0  0  0  0
 25 26  1  0  0  0  0
 25 98  1  0  0  0  0
 26 27  2  0  0  0  0
 26 28  1  0  0  0  0
 28 32  1  0  0  0  0
 28 29  1  0  0  0  0
 28 99  1  1  0  0  0
 29 30  1  0  0  0  0
 29 31  1  0  0  0  0
 29100  1  0  0  0  0
 30101  1  0  0  0  0
 30102  1  0  0  0  0
 30103  1  0  0  0  0
 31104  1  0  0  0  0
 31105  1  0  0  0  0
 31106  1  0  0  0  0
 32 33  1  0  0  0  0
 32 34  1  0  0  0  0
 33107  1  0  0  0  0
 33108  1  0  0  0  0
 33109  1  0  0  0  0
 34 35  2  0  0  0  0
 34 36  1  0  0  0  0
 36 37  1  0  0  0  0
 36 41  1  0  0  0  0
 36110  1  6  0  0  0
 37 38  1  0  0  0  0
 37 39  1  0  0  0  0
 37111  1  6  0  0  0
 38112  1  0  0  0  0
 38113  1  0  0  0  0
 38114  1  0  0  0  0
 39 40  1  0  0  0  0
 39115  1  0  0  0  0
 39116  1  0  0  0  0
 40117  1  0  0  0  0
 40118  1  0  0  0  0
 40119  1  0  0  0  0
 41 42  1  0  0  0  0
 42 43  2  0  0  0  0
 42 44  1  0  0  0  0
 44 49  1  0  0  0  0
 44 45  1  0  0  0  0
 44120  1  1  0  0  0
 45 46  1  0  0  0  0
 45 47  1  0  0  0  0
 45 48  1  0  0  0  0
 46121  1  0  0  0  0
 46122  1  0  0  0  0
 46123  1  0  0  0  0
 47124  1  0  0  0  0
 47125  1  0  0  0  0
 47126  1  0  0  0  0
 48127  1  0  0  0  0
 49 50  1  0  0  0  0
 49 51  1  0  0  0  0
 50128  1  0  0  0  0
 50129  1  0  0  0  0
 50130  1  0  0  0  0
 51 52  2  0  0  0  0
 51 53  1  0  0  0  0
 53 58  1  0  0  0  0
 53 54  1  0  0  0  0
 53131  1  1  0  0  0
 54 55  1  0  0  0  0
 54132  1  0  0  0  0
 54133  1  0  0  0  0
 55 56  1  0  0  0  0
 55 57  1  0  0  0  0
 55134  1  0  0  0  0
 56135  1  0  0  0  0
 56136  1  0  0  0  0
 56137  1  0  0  0  0
 57138  1  0  0  0  0
 57139  1  0  0  0  0
 57140  1  0  0  0  0
 58 59  1  0  0  0  0
 58141  1  0  0  0  0
 59 60  2  0  0  0  0
 59 61  1  0  0  0  0
 61 65  1  0  0  0  0
 61 62  1  0  0  0  0
 61142  1  1  0  0  0
 62 63  1  0  0  0  0
 62 64  1  0  0  0  0
 62143  1  0  0  0  0
 63144  1  0  0  0  0
 63145  1  0  0  0  0
 63146  1  0  0  0  0
 64147  1  0  0  0  0
 64148  1  0  0  0  0
 64149  1  0  0  0  0
 65 66  1  0  0  0  0
 65 67  1  0  0  0  0
 66150  1  0  0  0  0
 66151  1  0  0  0  0
 66152  1  0  0  0  0
 67 68  2  0  0  0  0
M  END
>  <Energy>
494.929

$$$$