44593438
  -OEChem-03242010103D

 59 62  0     1  0  0  0  0  0999 V2000
    7.5038    2.4132    0.0545 O   0  0  0  0  0  0  0  0  0  0  0  0
    8.8634    0.0131   -0.2733 O   0  0  0  0  0  0  0  0  0  0  0  0
   -5.5623    1.8323   -0.5371 O   0  0  0  0  0  0  0  0  0  0  0  0
    2.5682   -1.2014   -0.0721 N   0  0  1  0  0  0  0  0  0  0  0  0
   -5.2143   -0.3172    0.3505 N   0  0  0  0  0  0  0  0  0  0  0  0
    3.1532   -2.2086   -0.9657 C   0  0  0  0  0  0  0  0  0  0  0  0
    3.1900    0.1132   -0.3105 C   0  0  0  0  0  0  0  0  0  0  0  0
    4.6277   -2.4255   -0.6110 C   0  0  0  0  0  0  0  0  0  0  0  0
    4.7006    0.0760   -0.2725 C   0  0  0  0  0  0  0  0  0  0  0  0
    5.3896   -1.1343   -0.4612 C   0  0  0  0  0  0  0  0  0  0  0  0
    1.1198   -1.1208   -0.2582 C   0  0  0  0  0  0  0  0  0  0  0  0
    0.4362   -0.5725    0.9947 C   0  0  0  0  0  0  0  0  0  0  0  0
    5.4249    1.2650   -0.1118 C   0  0  0  0  0  0  0  0  0  0  0  0
    6.7903   -1.1438   -0.4493 C   0  0  0  0  0  0  0  0  0  0  0  0
    6.8195    1.2468   -0.1108 C   0  0  0  0  0  0  0  0  0  0  0  0
    7.5014    0.0436   -0.2770 C   0  0  0  0  0  0  0  0  0  0  0  0
   -1.0605   -0.5049    0.8242 C   0  0  0  0  0  0  0  0  0  0  0  0
   -1.6523    0.6486    0.3090 C   0  0  0  0  0  0  0  0  0  0  0  0
   -1.8532   -1.5955    1.1813 C   0  0  0  0  0  0  0  0  0  0  0  0
   -3.0368    0.7113    0.1511 C   0  0  0  0  0  0  0  0  0  0  0  0
   -3.2376   -1.5329    1.0235 C   0  0  0  0  0  0  0  0  0  0  0  0
   -3.8294   -0.3796    0.5085 C   0  0  0  0  0  0  0  0  0  0  0  0
    6.7305    3.6005    0.2182 C   0  0  0  0  0  0  0  0  0  0  0  0
    9.5036   -0.1793    0.9866 C   0  0  0  0  0  0  0  0  0  0  0  0
   -5.9788    0.7471   -0.1459 C   0  0  0  0  0  0  0  0  0  0  0  0
   -7.4427    0.4999   -0.2199 C   0  0  0  0  0  0  0  0  0  0  0  0
   -8.3357    1.5687   -0.1437 C   0  0  0  0  0  0  0  0  0  0  0  0
   -7.9232   -0.8012   -0.3671 C   0  0  0  0  0  0  0  0  0  0  0  0
   -9.7094    1.3365   -0.2148 C   0  0  0  0  0  0  0  0  0  0  0  0
   -9.2968   -1.0336   -0.4382 C   0  0  0  0  0  0  0  0  0  0  0  0
  -10.1897    0.0353   -0.3620 C   0  0  0  0  0  0  0  0  0  0  0  0
    2.6401   -3.1723   -0.8586 H   0  0  0  0  0  0  0  0  0  0  0  0
    3.0540   -1.9022   -2.0159 H   0  0  0  0  0  0  0  0  0  0  0  0
    2.8940    0.5157   -1.2887 H   0  0  0  0  0  0  0  0  0  0  0  0
    2.8530    0.8151    0.4608 H   0  0  0  0  0  0  0  0  0  0  0  0
    4.6990   -2.9744    0.3368 H   0  0  0  0  0  0  0  0  0  0  0  0
    5.0910   -3.0421   -1.3905 H   0  0  0  0  0  0  0  0  0  0  0  0
    0.7117   -2.1264   -0.4311 H   0  0  0  0  0  0  0  0  0  0  0  0
    0.8545   -0.5358   -1.1491 H   0  0  0  0  0  0  0  0  0  0  0  0
    0.6751   -1.2004    1.8635 H   0  0  0  0  0  0  0  0  0  0  0  0
    0.8043    0.4303    1.2433 H   0  0  0  0  0  0  0  0  0  0  0  0
    4.8403    2.1715    0.0066 H   0  0  0  0  0  0  0  0  0  0  0  0
    7.3275   -2.0810   -0.5751 H   0  0  0  0  0  0  0  0  0  0  0  0
   -1.0436    1.5033    0.0255 H   0  0  0  0  0  0  0  0  0  0  0  0
   -1.4035   -2.5002    1.5819 H   0  0  0  0  0  0  0  0  0  0  0  0
   -3.4187    1.6375   -0.2542 H   0  0  0  0  0  0  0  0  0  0  0  0
   -3.8427   -2.3908    1.3055 H   0  0  0  0  0  0  0  0  0  0  0  0
    7.4357    4.4296    0.3378 H   0  0  0  0  0  0  0  0  0  0  0  0
    6.1248    3.5656    1.1302 H   0  0  0  0  0  0  0  0  0  0  0  0
    6.1325    3.8191   -0.6731 H   0  0  0  0  0  0  0  0  0  0  0  0
    9.2470    0.6303    1.6772 H   0  0  0  0  0  0  0  0  0  0  0  0
   10.5851   -0.1722    0.8260 H   0  0  0  0  0  0  0  0  0  0  0  0
    9.2199   -1.1449    1.4172 H   0  0  0  0  0  0  0  0  0  0  0  0
   -5.7029   -1.1464    0.6764 H   0  0  0  0  0  0  0  0  0  0  0  0
   -7.9817    2.5893   -0.0241 H   0  0  0  0  0  0  0  0  0  0  0  0
   -7.2656   -1.6592   -0.4684 H   0  0  0  0  0  0  0  0  0  0  0  0
  -10.4049    2.1685   -0.1548 H   0  0  0  0  0  0  0  0  0  0  0  0
   -9.6714   -2.0456   -0.5615 H   0  0  0  0  0  0  0  0  0  0  0  0
  -11.2592   -0.1455   -0.4191 H   0  0  0  0  0  0  0  0  0  0  0  0
  1 15  1  0  0  0  0
  1 23  1  0  0  0  0
  2 16  1  0  0  0  0
  2 24  1  0  0  0  0
  3 25  2  0  0  0  0
  4  6  1  0  0  0  0
  4  7  1  0  0  0  0
  4 11  1  0  0  0  0
  5 22  1  0  0  0  0
  5 25  1  0  0  0  0
  5 54  1  0  0  0  0
  6  8  1  0  0  0  0
  6 32  1  0  0  0  0
  6 33  1  0  0  0  0
  7  9  1  0  0  0  0
  7 34  1  0  0  0  0
  7 35  1  0  0  0  0
  8 10  1  0  0  0  0
  8 36  1  0  0  0  0
  8 37  1  0  0  0  0
  9 10  1  0  0  0  0
  9 13  2  0  0  0  0
 10 14  2  0  0  0  0
 11 12  1  0  0  0  0
 11 38  1  0  0  0  0
 11 39  1  0  0  0  0
 12 17  1  0  0  0  0
 12 40  1  0  0  0  0
 12 41  1  0  0  0  0
 13 15  1  0  0  0  0
 13 42  1  0  0  0  0
 14 16  1  0  0  0  0
 14 43  1  0  0  0  0
 15 16  2  0  0  0  0
 17 18  2  0  0  0  0
 17 19  1  0  0  0  0
 18 20  1  0  0  0  0
 18 44  1  0  0  0  0
 19 21  2  0  0  0  0
 19 45  1  0  0  0  0
 20 22  2  0  0  0  0
 20 46  1  0  0  0  0
 21 22  1  0  0  0  0
 21 47  1  0  0  0  0
 23 48  1  0  0  0  0
 23 49  1  0  0  0  0
 23 50  1  0  0  0  0
 24 51  1  0  0  0  0
 24 52  1  0  0  0  0
 24 53  1  0  0  0  0
 25 26  1  0  0  0  0
 26 27  2  0  0  0  0
 26 28  1  0  0  0  0
 27 29  1  0  0  0  0
 27 55  1  0  0  0  0
 28 30  2  0  0  0  0
 28 56  1  0  0  0  0
 29 31  2  0  0  0  0
 29 57  1  0  0  0  0
 30 31  1  0  0  0  0
 30 58  1  0  0  0  0
 31 59  1  0  0  0  0
M  END
> <PUBCHEM_COMPOUND_CID>
44593438

> <PUBCHEM_CONFORMER_RMSD>
1

> <PUBCHEM_CONFORMER_DIVERSEORDER>
4
5
43
18
41
21
40
15
35
38
10
3
16
39
31
2
36
23
26
1
30
33
42
7
9
32
27
34
20
8
37
28
6
25
29
24
17
22
11
19
13
12
14

> <PUBCHEM_MMFF94_PARTIAL_CHARGES>
43
1 -0.36
10 -0.14
11 0.27
12 0.14
13 -0.15
14 -0.15
15 0.08
16 0.08
17 -0.14
18 -0.15
19 -0.15
2 -0.36
20 -0.15
21 -0.15
22 0.12
23 0.28
24 0.28
25 0.54
26 0.09
27 -0.15
28 -0.15
29 -0.15
3 -0.57
30 -0.15
31 -0.15
4 -0.81
42 0.15
43 0.15
44 0.15
45 0.15
46 0.15
47 0.15
5 -0.55
54 0.37
55 0.15
56 0.15
57 0.15
58 0.15
59 0.15
6 0.27
7 0.41
8 0.14
9 -0.14

> <PUBCHEM_EFFECTIVE_ROTOR_COUNT>
8.8

> <PUBCHEM_PHARMACOPHORE_FEATURES>
9
1 1 acceptor
1 2 acceptor
1 3 acceptor
1 4 cation
1 5 donor
6 17 18 19 20 21 22 rings
6 26 27 28 29 30 31 rings
6 4 6 7 8 9 10 rings
6 9 10 13 14 15 16 rings

> <PUBCHEM_HEAVY_ATOM_COUNT>
31

> <PUBCHEM_ATOM_DEF_STEREO_COUNT>
0

> <PUBCHEM_ATOM_UDEF_STEREO_COUNT>
0

> <PUBCHEM_BOND_DEF_STEREO_COUNT>
0

> <PUBCHEM_BOND_UDEF_STEREO_COUNT>
0

> <PUBCHEM_ISOTOPIC_ATOM_COUNT>
0

> <PUBCHEM_COMPONENT_COUNT>
1

> <PUBCHEM_CACTVS_TAUTO_COUNT>
2

> <PUBCHEM_CONFORMER_ID>
02A8711E00000004

> <PUBCHEM_MMFF94_ENERGY>
109.8828

> <PUBCHEM_FEATURE_SELFOVERLAP>
45.698

> <PUBCHEM_SHAPE_FINGERPRINT>
10076449 9 15985104103031752017
10162869 55 18201999932703897570
10299344 5 17703790302390271159
10533779 1 16772374340727134648
10533779 47 8862945013600949309
10835480 77 18411142458770425568
10883706 142 16081090377383896771
11135609 127 18341611568814293768
11315181 36 18201722835221969433
11409948 35 16805876283715369370
11456790 92 13045945698790755887
11607047 141 17313372402533154216
11693224 71 18186799171259999315
12013929 2 18259989250428357490
12013929 94 18201437018044528143
12082328 90 17846500280288386309
12522641 33 18342458115358335863
12664476 115 18187362134683345572
12758862 11 18334580170315832513
13685833 64 9583520910819188154
13811026 1 18334298677642313133
14118638 360 15123520159570908671
14142895 15 18342175600534510317
14251764 46 17894912927951714307
14344974 52 18409165541939457523
150020 25 18410862061656880811
15247644 1 15410897344521327070
15510794 2 18259990379450894859
15840311 113 18412266147339044220
15890870 6 18341334474967605316
16120349 18 18413107273380864244
16758388 162 18187355512080820986
1754911 235 18409163304071553613
17686467 74 18114183052128806605
1818759 1 13254795755254599749
18643901 69 12535633773838243505
20105231 36 12751238099623997733
20157964 124 18341616997499747814
20554085 129 16950279615722745216
20721686 124 18409451359076539206
20771845 171 17131845244236408718
20812841 46 18113331991484596554
21150785 3 17918555722151930043
21267235 1 10952047849134153131
21362267 2 18337377331992622781
21362857 166 16558485101965440948
21792934 111 18341325661747799768
21867018 265 18060414760108505463
232437 2 18411419505704626975
246663 6 13183020722567017367
24771293 8 18187087213937550525
395649 100 18261392295911426203
44880568 143 17987246525771164733
4625314 4 18343022207329718782
4874694 18 18412543206657552250
5470011 282 17917430908634534463
5937810 71 18269275669844605697
6201320 215 13046206266563560775
67123 10 18413388735709848615
9962374 69 9871454401171464152

> <PUBCHEM_SHAPE_MULTIPOLES>
610.4
37.74
2.35
0.89
32.37
1.23
-0.13
12.61
4.64
-4.01
0.14
-0.13
-0.27
1.17

> <PUBCHEM_SHAPE_SELFOVERLAP>
1315.071

> <PUBCHEM_SHAPE_VOLUME>
335.6

> <PUBCHEM_COORDINATE_TYPE>
2
5
10

$$$$