11579996
  -OEChem-03242010103D

 35 37  0     0  0  0  0  0  0999 V2000
   -2.8099    1.9832   -2.3865 O   0  0  0  0  0  0  0  0  0  0  0  0
   -2.8097    1.9834    2.3867 O   0  0  0  0  0  0  0  0  0  0  0  0
    3.7418    3.1610    0.0002 O   0  0  0  0  0  0  0  0  0  0  0  0
   -0.5936   -1.6080    0.0001 C   0  0  0  0  0  0  0  0  0  0  0  0
    0.8036   -1.6033   -0.0001 C   0  0  0  0  0  0  0  0  0  0  0  0
   -1.3557   -0.3729    0.0001 C   0  0  0  0  0  0  0  0  0  0  0  0
    1.5622   -0.3712   -0.0004 C   0  0  0  0  0  0  0  0  0  0  0  0
   -1.2902   -2.8164    0.0002 C   0  0  0  0  0  0  0  0  0  0  0  0
    1.4995   -2.8146   -0.0002 C   0  0  0  0  0  0  0  0  0  0  0  0
   -1.7196    0.2168    1.2081 C   0  0  0  0  0  0  0  0  0  0  0  0
   -1.7197    0.2168   -1.2078 C   0  0  0  0  0  0  0  0  0  0  0  0
    1.9276    0.2229   -1.2082 C   0  0  0  0  0  0  0  0  0  0  0  0
    1.9288    0.2219    1.2078 C   0  0  0  0  0  0  0  0  0  0  0  0
   -0.5920   -4.0241    0.0001 C   0  0  0  0  0  0  0  0  0  0  0  0
    0.8028   -4.0231   -0.0002 C   0  0  0  0  0  0  0  0  0  0  0  0
   -2.4524    1.4039   -1.2079 C   0  0  0  0  0  0  0  0  0  0  0  0
   -2.4521    1.4040    1.2081 C   0  0  0  0  0  0  0  0  0  0  0  0
   -2.8185    1.9974    0.0001 C   0  0  0  0  0  0  0  0  0  0  0  0
    2.6598    1.4101   -1.2081 C   0  0  0  0  0  0  0  0  0  0  0  0
    2.6610    1.4092    1.2079 C   0  0  0  0  0  0  0  0  0  0  0  0
    3.0265    2.0033    0.0000 C   0  0  0  0  0  0  0  0  0  0  0  0
   -2.3776   -2.8378    0.0004 H   0  0  0  0  0  0  0  0  0  0  0  0
    2.5871   -2.8354   -0.0005 H   0  0  0  0  0  0  0  0  0  0  0  0
   -1.4391   -0.2381    2.1557 H   0  0  0  0  0  0  0  0  0  0  0  0
   -1.4359   -0.2438   -2.1518 H   0  0  0  0  0  0  0  0  0  0  0  0
    1.6502   -0.2264   -2.1590 H   0  0  0  0  0  0  0  0  0  0  0  0
    1.6525   -0.2280    2.1585 H   0  0  0  0  0  0  0  0  0  0  0  0
   -1.1343   -4.9651    0.0001 H   0  0  0  0  0  0  0  0  0  0  0  0
    1.3463   -4.9634   -0.0003 H   0  0  0  0  0  0  0  0  0  0  0  0
   -3.3894    2.9226   -0.0072 H   0  0  0  0  0  0  0  0  0  0  0  0
    2.9384    1.8629   -2.1559 H   0  0  0  0  0  0  0  0  0  0  0  0
    2.9437    1.8665    2.1522 H   0  0  0  0  0  0  0  0  0  0  0  0
   -2.4734    1.4403   -3.1199 H   0  0  0  0  0  0  0  0  0  0  0  0
   -3.3106    2.7959    2.1995 H   0  0  0  0  0  0  0  0  0  0  0  0
    3.9066    3.4296   -0.9199 H   0  0  0  0  0  0  0  0  0  0  0  0
  1 16  1  0  0  0  0
  1 33  1  0  0  0  0
  2 17  1  0  0  0  0
  2 34  1  0  0  0  0
  3 21  1  0  0  0  0
  3 35  1  0  0  0  0
  4  5  1  0  0  0  0
  4  6  1  0  0  0  0
  4  8  2  0  0  0  0
  5  7  1  0  0  0  0
  5  9  2  0  0  0  0
  6 10  2  0  0  0  0
  6 11  1  0  0  0  0
  7 12  2  0  0  0  0
  7 13  1  0  0  0  0
  8 14  1  0  0  0  0
  8 22  1  0  0  0  0
  9 15  1  0  0  0  0
  9 23  1  0  0  0  0
 10 17  1  0  0  0  0
 10 24  1  0  0  0  0
 11 16  2  0  0  0  0
 11 25  1  0  0  0  0
 12 19  1  0  0  0  0
 12 26  1  0  0  0  0
 13 20  2  0  0  0  0
 13 27  1  0  0  0  0
 14 15  2  0  0  0  0
 14 28  1  0  0  0  0
 15 29  1  0  0  0  0
 16 18  1  0  0  0  0
 17 18  2  0  0  0  0
 18 30  1  0  0  0  0
 19 21  2  0  0  0  0
 19 31  1  0  0  0  0
 20 21  1  0  0  0  0
 20 32  1  0  0  0  0
M  END
> <PUBCHEM_COMPOUND_CID>
11579996

> <PUBCHEM_CONFORMER_RMSD>
0.6

> <PUBCHEM_CONFORMER_DIVERSEORDER>
1

> <PUBCHEM_MMFF94_PARTIAL_CHARGES>
31
1 -0.53
10 -0.15
11 -0.15
12 -0.15
13 -0.15
14 -0.15
15 -0.15
16 0.08
17 0.08
18 -0.15
19 -0.15
2 -0.53
20 -0.15
21 0.08
22 0.15
23 0.15
24 0.15
25 0.15
26 0.15
27 0.15
28 0.15
29 0.15
3 -0.53
30 0.15
31 0.15
32 0.15
33 0.45
34 0.45
35 0.45
8 -0.15
9 -0.15

> <PUBCHEM_EFFECTIVE_ROTOR_COUNT>
2

> <PUBCHEM_PHARMACOPHORE_FEATURES>
6
1 1 donor
1 2 donor
1 3 donor
6 4 5 8 9 14 15 rings
6 6 10 11 16 17 18 rings
6 7 12 13 19 20 21 rings

> <PUBCHEM_HEAVY_ATOM_COUNT>
21

> <PUBCHEM_ATOM_DEF_STEREO_COUNT>
0

> <PUBCHEM_ATOM_UDEF_STEREO_COUNT>
0

> <PUBCHEM_BOND_DEF_STEREO_COUNT>
0

> <PUBCHEM_BOND_UDEF_STEREO_COUNT>
0

> <PUBCHEM_ISOTOPIC_ATOM_COUNT>
0

> <PUBCHEM_COMPONENT_COUNT>
1

> <PUBCHEM_CACTVS_TAUTO_COUNT>
10

> <PUBCHEM_CONFORMER_ID>
00B0B25C00000001

> <PUBCHEM_MMFF94_ENERGY>
70.1206

> <PUBCHEM_FEATURE_SELFOVERLAP>
30.448

> <PUBCHEM_SHAPE_FINGERPRINT>
10165383 225 17976300955639753332
10871710 139 17319582679328032996
11578080 2 12987214086686391070
11582403 64 16664255921006722085
11725454 13 16735762608253236869
12156800 1 15394374072758059480
12173636 292 18270413783546057769
12553582 1 17403742146823445231
12788726 201 18054218006198281559
128993 33 18200612318532817833
13132413 78 17550954685203397202
13134695 92 17616806639550597759
13140716 1 18410300176870991610
13681431 1 17687467866864524230
13911987 19 17614297562596327302
14614273 12 18265612263385391655
14787075 74 18059011830262388617
14955137 171 18051433776643367234
16945 1 17978228253510252003
17357990 137 17128180416898159481
1813 80 17049370635770455151
18219364 16 18117845399735725517
18981168 100 18409737243949661644
19868273 325 17401769017572994078
20510252 161 17979071909846700026
20600515 1 17330004997213077974
21041028 32 17041497011496764147
21524375 3 18261683635477884906
21639500 275 18122056503721830503
23175994 123 17252884749266916879
23402539 116 17549259689372027246
23557571 272 17693386950616412516
238 59 18117823413998565397
2748010 2 18261680276776529743
31174 14 17903660496375351257
350125 39 18410020939498733154
3886686 26 18123436558909583434
474 4 18197486338402909825
57527585 21 16913409868429500633
621550 5 16744292499260298145
6442390 28 18124906618165496971
81228 2 17832160680844641546
90316 7 17615675676072634730

> <PUBCHEM_SHAPE_MULTIPOLES>
414.56
4.98
4.69
1.59
0.57
4.86
0
-5.83
0
1.21
0
-1.13
-1.31
0

> <PUBCHEM_SHAPE_SELFOVERLAP>
924.393

> <PUBCHEM_SHAPE_VOLUME>
221.4

> <PUBCHEM_COORDINATE_TYPE>
2
5
10

$$$$