64
 OpenBabel03292021503D

171174  0  0  1  0  0  0  0  0999 V2000
    6.1463   -5.5845    3.8829 C   0  0  0  0  0  0  0  0  0  0  0  0
    5.9343   -6.7245    2.8643 C   0  0  0  0  0  0  0  0  0  0  0  0
    6.2288   -6.2535    1.4410 C   0  0  2  0  0  0  0  0  0  0  0  0
    7.5838   -5.5239    1.3185 C   0  0  0  0  0  0  0  0  0  0  0  0
    5.6868   -7.0653    0.1611 C   0  0  2  0  0  0  0  0  0  0  0  0
    6.1428   -8.5596   -0.3003 N   0  0  0  0  0  0  0  0  0  0  0  0
    5.7761   -9.7737    0.2792 C   0  0  0  0  0  0  0  0  0  0  0  0
    5.1957   -9.5603    1.3483 O   0  0  0  0  0  0  0  0  0  0  0  0
    5.8700  -11.4676   -0.2273 C   0  0  2  0  0  0  0  0  0  0  0  0
    7.0530  -11.9483   -1.0574 C   0  0  0  0  0  0  0  0  0  0  0  0
    6.4993  -12.5543   -2.3525 C   0  0  0  0  0  0  0  0  0  0  0  0
    4.9977  -12.5717   -2.1977 C   0  0  0  0  0  0  0  0  0  0  0  0
    4.7931  -12.4476   -0.7704 N   0  0  0  0  0  0  0  0  0  0  0  0
    4.1733  -13.6248   -0.2542 C   0  0  0  0  0  0  0  0  0  0  0  0
    3.3990  -14.2853   -0.9752 O   0  0  0  0  0  0  0  0  0  0  0  0
    4.4142  -14.1668    1.1797 C   0  0  2  0  0  0  0  0  0  0  0  0
    3.9281  -15.6223    1.4508 C   0  0  0  0  0  0  0  0  0  0  0  0
    4.7593  -16.8437    1.1173 C   0  0  0  0  0  0  0  0  0  0  0  0
    5.9662  -17.1085    1.7797 C   0  0  0  0  0  0  0  0  0  0  0  0
    6.5814  -18.3634    1.6617 C   0  0  0  0  0  0  0  0  0  0  0  0
    6.0016  -19.3615    0.8809 C   0  0  0  0  0  0  0  0  0  0  0  0
    4.8127  -19.1059    0.2044 C   0  0  0  0  0  0  0  0  0  0  0  0
    4.1985  -17.8558    0.3192 C   0  0  0  0  0  0  0  0  0  0  0  0
    3.6825  -13.2180    2.0415 N   0  0  0  0  0  0  0  0  0  0  0  0
    2.3734  -13.5567    2.5874 C   0  0  0  0  0  0  0  0  0  0  0  0
    4.4674  -12.2896    2.6602 C   0  0  0  0  0  0  0  0  0  0  0  0
    5.6301  -12.6146    2.8979 O   0  0  0  0  0  0  0  0  0  0  0  0
    3.9051  -10.9670    3.1653 C   0  0  2  0  0  0  0  0  0  0  0  0
    2.8158  -10.2104    2.2189 C   0  0  0  0  0  0  0  0  0  0  0  0
    2.3606  -10.6152    0.7947 C   0  0  0  0  0  0  0  0  0  0  0  0
    1.3091  -11.5022    0.5321 C   0  0  0  0  0  0  0  0  0  0  0  0
    0.9330  -11.8840   -0.7703 C   0  0  0  0  0  0  0  0  0  0  0  0
    1.5627  -11.3389   -1.8830 C   0  0  0  0  0  0  0  0  0  0  0  0
    2.5218  -10.3685   -1.6771 C   0  0  0  0  0  0  0  0  0  0  0  0
    2.8858  -10.0114   -0.3650 C   0  0  0  0  0  0  0  0  0  0  0  0
    5.0325  -10.0612    3.7293 N   0  0  0  0  0  0  0  0  0  0  0  0
    6.3121  -10.4392    4.1759 C   0  0  0  0  0  0  0  0  0  0  0  0
    6.5137  -10.2700    5.3846 O   0  0  0  0  0  0  0  0  0  0  0  0
    7.5591  -10.7598    3.1656 C   0  0  2  0  0  0  0  0  0  0  0  0
    8.5385  -11.8926    3.6977 C   0  0  0  0  0  0  0  0  0  0  0  0
    9.6104  -12.2771    2.6535 C   0  0  0  0  0  0  0  0  0  0  0  0
    7.9028  -13.2101    4.1563 C   0  0  0  0  0  0  0  0  0  0  0  0
    8.4176   -9.5230    2.8391 N   0  0  0  0  0  0  0  0  0  0  0  0
    8.9698   -8.8581    4.0060 C   0  0  0  0  0  0  0  0  0  0  0  0
    8.9153   -9.3767    1.5300 C   0  0  0  0  0  0  0  0  0  0  0  0
    8.5787  -10.2230    0.6882 O   0  0  0  0  0  0  0  0  0  0  0  0
    9.8141   -8.1849    0.9487 C   0  0  1  0  0  0  0  0  0  0  0  0
   10.7492   -7.4357    1.9259 C   0  0  1  0  0  0  0  0  0  0  0  0
   11.9827   -8.2721    2.2811 C   0  0  0  0  0  0  0  0  0  0  0  0
   11.1771   -6.0318    1.4427 C   0  0  0  0  0  0  0  0  0  0  0  0
   11.7610   -5.1909    2.5811 C   0  0  0  0  0  0  0  0  0  0  0  0
   10.6303   -8.6804   -0.1866 O   0  0  0  0  0  0  0  0  0  0  0  0
   10.5416   -8.1329   -1.4520 C   0  0  0  0  0  0  0  0  0  0  0  0
   11.3834   -7.3352   -1.8725 O   0  0  0  0  0  0  0  0  0  0  0  0
    9.4520   -8.7543   -2.3731 C   0  0  2  0  0  0  0  0  0  0  0  0
    9.7288  -10.1793   -2.9504 C   0  0  0  0  0  0  0  0  0  0  0  0
   10.4354  -10.3740   -4.2898 C   0  0  0  0  0  0  0  0  0  0  0  0
   10.4020  -11.1301   -1.9520 C   0  0  0  0  0  0  0  0  0  0  0  0
    8.4228  -10.6848   -3.2722 O   0  0  0  0  0  0  0  0  0  0  0  0
    8.7954   -7.8333   -3.4145 N   0  0  0  0  0  0  0  0  0  0  0  0
    9.5346   -7.4936   -4.6119 C   0  0  0  0  0  0  0  0  0  0  0  0
    7.6439   -7.1515   -3.0609 C   0  0  0  0  0  0  0  0  0  0  0  0
    7.3469   -7.2387   -1.8737 O   0  0  0  0  0  0  0  0  0  0  0  0
    6.6815   -6.4138   -4.0730 C   0  0  2  0  0  0  0  0  0  0  0  0
    6.8020   -4.8738   -4.1645 C   0  0  0  0  0  0  0  0  0  0  0  0
    8.1994   -4.2216   -4.1004 C   0  0  0  0  0  0  0  0  0  0  0  0
    8.8424   -4.1223   -5.4872 C   0  0  0  0  0  0  0  0  0  0  0  0
    8.1192   -2.8021   -3.5148 C   0  0  0  0  0  0  0  0  0  0  0  0
    5.1892   -6.8488   -4.1230 N   0  0  0  0  0  0  0  0  0  0  0  0
    3.9478   -6.7144   -3.5225 C   0  0  0  0  0  0  0  0  0  0  0  0
    3.0108   -6.9650   -4.2907 O   0  0  0  0  0  0  0  0  0  0  0  0
    3.6193   -6.5225   -1.9880 C   0  0  2  0  0  0  0  0  0  0  0  0
    2.1299   -6.2420   -1.5324 C   0  0  0  0  0  0  0  0  0  0  0  0
    2.0322   -5.7402   -0.0636 C   0  0  0  0  0  0  0  0  0  0  0  0
    1.1943   -7.4421   -1.6069 C   0  0  0  0  0  0  0  0  0  0  0  0
    4.4586   -5.4668   -1.4930 N   0  0  0  0  0  0  0  0  0  0  0  0
    4.1367   -4.0719   -1.8314 C   0  0  0  0  0  0  0  0  0  0  0  0
    5.6379   -5.7741   -0.8693 C   0  0  0  0  0  0  0  0  0  0  0  0
    6.5569   -4.9584   -1.0053 O   0  0  0  0  0  0  0  0  0  0  0  0
    5.7276   -4.6345    3.5238 H   0  0  0  0  0  0  0  0  0  0  0  0
    7.2093   -5.4122    4.0863 H   0  0  0  0  0  0  0  0  0  0  0  0
    5.6665   -5.8159    4.8368 H   0  0  0  0  0  0  0  0  0  0  0  0
    4.8878   -7.0387    2.9273 H   0  0  0  0  0  0  0  0  0  0  0  0
    6.5607   -7.5721    3.1293 H   0  0  0  0  0  0  0  0  0  0  0  0
    5.5351   -5.3893    1.4096 H   0  0  0  0  0  0  0  0  0  0  0  0
    8.2329   -5.6600    2.1838 H   0  0  0  0  0  0  0  0  0  0  0  0
    7.4156   -4.4373    1.2378 H   0  0  0  0  0  0  0  0  0  0  0  0
    8.1380   -5.8049    0.4250 H   0  0  0  0  0  0  0  0  0  0  0  0
    4.6410   -7.2532    0.4350 H   0  0  0  0  0  0  0  0  0  0  0  0
    6.7193   -8.5616   -1.1285 H   0  0  0  0  0  0  0  0  0  0  0  0
    6.0717  -11.9032    0.7489 H   0  0  0  0  0  0  0  0  0  0  0  0
    7.5515  -12.7631   -0.5148 H   0  0  0  0  0  0  0  0  0  0  0  0
    7.7846  -11.1755   -1.2101 H   0  0  0  0  0  0  0  0  0  0  0  0
    6.9060  -13.5626   -2.4955 H   0  0  0  0  0  0  0  0  0  0  0  0
    6.7222  -12.0019   -3.2619 H   0  0  0  0  0  0  0  0  0  0  0  0
    4.6020  -13.4880   -2.6523 H   0  0  0  0  0  0  0  0  0  0  0  0
    4.5557  -11.7218   -2.7111 H   0  0  0  0  0  0  0  0  0  0  0  0
    5.4988  -14.1337    1.3278 H   0  0  0  0  0  0  0  0  0  0  0  0
    3.7887  -15.7308    2.5358 H   0  0  0  0  0  0  0  0  0  0  0  0
    2.9257  -15.7578    1.0241 H   0  0  0  0  0  0  0  0  0  0  0  0
    6.4050  -16.3721    2.4492 H   0  0  0  0  0  0  0  0  0  0  0  0
    7.4977  -18.5735    2.2082 H   0  0  0  0  0  0  0  0  0  0  0  0
    6.4636  -20.3439    0.8149 H   0  0  0  0  0  0  0  0  0  0  0  0
    4.3442  -19.8871   -0.3884 H   0  0  0  0  0  0  0  0  0  0  0  0
    3.2432  -17.6952   -0.1769 H   0  0  0  0  0  0  0  0  0  0  0  0
    1.7371  -13.9598    1.7980 H   0  0  0  0  0  0  0  0  0  0  0  0
    1.8948  -12.6945    3.0548 H   0  0  0  0  0  0  0  0  0  0  0  0
    2.4937  -14.2963    3.3836 H   0  0  0  0  0  0  0  0  0  0  0  0
    3.3604  -11.2325    4.0792 H   0  0  0  0  0  0  0  0  0  0  0  0
    1.8866  -10.1939    2.8029 H   0  0  0  0  0  0  0  0  0  0  0  0
    3.0799   -9.1448    2.1738 H   0  0  0  0  0  0  0  0  0  0  0  0
    0.7335  -11.9019    1.3574 H   0  0  0  0  0  0  0  0  0  0  0  0
    0.1517  -12.6265   -0.9197 H   0  0  0  0  0  0  0  0  0  0  0  0
    1.2903  -11.6453   -2.8850 H   0  0  0  0  0  0  0  0  0  0  0  0
    2.9968   -9.8907   -2.5270 H   0  0  0  0  0  0  0  0  0  0  0  0
    3.5632   -9.1827   -0.2627 H   0  0  0  0  0  0  0  0  0  0  0  0
    4.6398   -9.5287    4.4708 H   0  0  0  0  0  0  0  0  0  0  0  0
    7.1381  -11.0932    2.2259 H   0  0  0  0  0  0  0  0  0  0  0  0
    9.0690  -11.5007    4.5734 H   0  0  0  0  0  0  0  0  0  0  0  0
    9.1497  -12.5830    1.7079 H   0  0  0  0  0  0  0  0  0  0  0  0
   10.2223  -13.1169    3.0033 H   0  0  0  0  0  0  0  0  0  0  0  0
   10.3023  -11.4540    2.4574 H   0  0  0  0  0  0  0  0  0  0  0  0
    7.5597  -13.8113    3.3082 H   0  0  0  0  0  0  0  0  0  0  0  0
    7.0798  -13.0510    4.8571 H   0  0  0  0  0  0  0  0  0  0  0  0
    8.6470  -13.8270    4.6756 H   0  0  0  0  0  0  0  0  0  0  0  0
    8.6081   -9.2966    4.9364 H   0  0  0  0  0  0  0  0  0  0  0  0
    8.6794   -7.8075    4.0041 H   0  0  0  0  0  0  0  0  0  0  0  0
   10.0531   -8.9833    4.0188 H   0  0  0  0  0  0  0  0  0  0  0  0
    9.0884   -7.4983    0.5243 H   0  0  0  0  0  0  0  0  0  0  0  0
   10.1942   -7.2277    2.8367 H   0  0  0  0  0  0  0  0  0  0  0  0
   12.7446   -8.2116    1.4971 H   0  0  0  0  0  0  0  0  0  0  0  0
   11.7287   -9.3271    2.4229 H   0  0  0  0  0  0  0  0  0  0  0  0
   12.4336   -7.9193    3.2151 H   0  0  0  0  0  0  0  0  0  0  0  0
   10.3121   -5.4908    1.0503 H   0  0  0  0  0  0  0  0  0  0  0  0
   11.9034   -6.0999    0.6273 H   0  0  0  0  0  0  0  0  0  0  0  0
   11.0741   -5.1469    3.4346 H   0  0  0  0  0  0  0  0  0  0  0  0
   11.9383   -4.1640    2.2470 H   0  0  0  0  0  0  0  0  0  0  0  0
   12.7135   -5.5975    2.9334 H   0  0  0  0  0  0  0  0  0  0  0  0
    8.6620   -8.9359   -1.6348 H   0  0  0  0  0  0  0  0  0  0  0  0
   10.5082  -11.4493   -4.5113 H   0  0  0  0  0  0  0  0  0  0  0  0
   11.4432   -9.9557   -4.3059 H   0  0  0  0  0  0  0  0  0  0  0  0
    9.8408   -9.9910   -5.1262 H   0  0  0  0  0  0  0  0  0  0  0  0
    9.9863  -11.0538   -0.9508 H   0  0  0  0  0  0  0  0  0  0  0  0
   10.2618  -12.1775   -2.2446 H   0  0  0  0  0  0  0  0  0  0  0  0
   11.4754  -10.9266   -1.8784 H   0  0  0  0  0  0  0  0  0  0  0  0
    7.9133   -9.9590   -3.6772 H   0  0  0  0  0  0  0  0  0  0  0  0
   10.5418   -7.9127   -4.5943 H   0  0  0  0  0  0  0  0  0  0  0  0
    9.6546   -6.4190   -4.6676 H   0  0  0  0  0  0  0  0  0  0  0  0
    8.9835   -7.8510   -5.4820 H   0  0  0  0  0  0  0  0  0  0  0  0
    7.0243   -6.7817   -5.0465 H   0  0  0  0  0  0  0  0  0  0  0  0
    6.3003   -4.5459   -5.0852 H   0  0  0  0  0  0  0  0  0  0  0  0
    6.2100   -4.4523   -3.3694 H   0  0  0  0  0  0  0  0  0  0  0  0
    8.8463   -4.7958   -3.4299 H   0  0  0  0  0  0  0  0  0  0  0  0
    8.3619   -3.3485   -6.0961 H   0  0  0  0  0  0  0  0  0  0  0  0
    8.7705   -5.0606   -6.0428 H   0  0  0  0  0  0  0  0  0  0  0  0
    9.9024   -3.8596   -5.3950 H   0  0  0  0  0  0  0  0  0  0  0  0
    7.5002   -2.1465   -4.1370 H   0  0  0  0  0  0  0  0  0  0  0  0
    9.1179   -2.3559   -3.4460 H   0  0  0  0  0  0  0  0  0  0  0  0
    7.6943   -2.8129   -2.5059 H   0  0  0  0  0  0  0  0  0  0  0  0
    4.9544   -7.0478   -5.0874 H   0  0  0  0  0  0  0  0  0  0  0  0
    3.9222   -7.4751   -1.5559 H   0  0  0  0  0  0  0  0  0  0  0  0
    1.6958   -5.4740   -2.1830 H   0  0  0  0  0  0  0  0  0  0  0  0
    2.5888   -6.3878    0.6214 H   0  0  0  0  0  0  0  0  0  0  0  0
    0.9912   -5.7226    0.2861 H   0  0  0  0  0  0  0  0  0  0  0  0
    2.4034   -4.7215    0.0617 H   0  0  0  0  0  0  0  0  0  0  0  0
    1.3578   -8.1049   -0.7523 H   0  0  0  0  0  0  0  0  0  0  0  0
    1.2867   -7.9943   -2.5374 H   0  0  0  0  0  0  0  0  0  0  0  0
    0.1483   -7.1195   -1.5055 H   0  0  0  0  0  0  0  0  0  0  0  0
    3.2757   -4.0070   -2.5017 H   0  0  0  0  0  0  0  0  0  0  0  0
    4.9705   -3.5352   -2.2756 H   0  0  0  0  0  0  0  0  0  0  0  0
    3.9107   -3.5401   -0.9009 H   0  0  0  0  0  0  0  0  0  0  0  0
  1  2  1  0  0  0  0
  1 80  1  0  0  0  0
  1 81  1  0  0  0  0
  1 82  1  0  0  0  0
  2 83  1  0  0  0  0
  2 84  1  0  0  0  0
  3  4  1  0  0  0  0
  3  2  1  0  0  0  0
  3 85  1  1  0  0  0
  4 86  1  0  0  0  0
  4 87  1  0  0  0  0
  4 88  1  0  0  0  0
  5  6  1  0  0  0  0
  5 78  1  0  0  0  0
  5  3  1  0  0  0  0
  5 89  1  1  0  0  0
  6  7  1  0  0  0  0
  6 90  1  0  0  0  0
  7  8  2  0  0  0  0
  7  9  1  0  0  0  0
  9 10  1  0  0  0  0
  9 13  1  0  0  0  0
  9 91  1  1  0  0  0
 10 11  1  0  0  0  0
 10 92  1  0  0  0  0
 10 93  1  0  0  0  0
 11 12  1  0  0  0  0
 11 94  1  0  0  0  0
 11 95  1  0  0  0  0
 12 13  1  0  0  0  0
 12 96  1  0  0  0  0
 12 97  1  0  0  0  0
 13 14  1  0  0  0  0
 14 15  2  0  0  0  0
 14 16  1  0  0  0  0
 16 24  1  0  0  0  0
 16 17  1  0  0  0  0
 16 98  1  1  0  0  0
 17 18  1  0  0  0  0
 17 99  1  0  0  0  0
 17100  1  0  0  0  0
 18 19  1  0  0  0  0
 18 23  2  0  0  0  0
 19 20  2  0  0  0  0
 19101  1  0  0  0  0
 20 21  1  0  0  0  0
 20102  1  0  0  0  0
 21 22  2  0  0  0  0
 21103  1  0  0  0  0
 22 23  1  0  0  0  0
 22104  1  0  0  0  0
 23105  1  0  0  0  0
 24 25  1  0  0  0  0
 24 26  1  0  0  0  0
 25106  1  0  0  0  0
 25107  1  0  0  0  0
 25108  1  0  0  0  0
 26 27  2  0  0  0  0
 26 28  1  0  0  0  0
 28 36  1  0  0  0  0
 28 29  1  0  0  0  0
 28109  1  1  0  0  0
 29 30  1  0  0  0  0
 29110  1  0  0  0  0
 29111  1  0  0  0  0
 30 31  1  0  0  0  0
 30 35  2  0  0  0  0
 31 32  2  0  0  0  0
 31112  1  0  0  0  0
 32 33  1  0  0  0  0
 32113  1  0  0  0  0
 33 34  2  0  0  0  0
 33114  1  0  0  0  0
 34 35  1  0  0  0  0
 34115  1  0  0  0  0
 35116  1  0  0  0  0
 36 37  1  0  0  0  0
 36117  1  0  0  0  0
 37 38  2  0  0  0  0
 37 39  1  0  0  0  0
 39 43  1  0  0  0  0
 39 40  1  0  0  0  0
 39118  1  6  0  0  0
 40 41  1  0  0  0  0
 40 42  1  0  0  0  0
 40119  1  0  0  0  0
 41120  1  0  0  0  0
 41121  1  0  0  0  0
 41122  1  0  0  0  0
 42123  1  0  0  0  0
 42124  1  0  0  0  0
 42125  1  0  0  0  0
 43 44  1  0  0  0  0
 43 45  1  0  0  0  0
 44126  1  0  0  0  0
 44127  1  0  0  0  0
 44128  1  0  0  0  0
 45 46  2  0  0  0  0
 45 47  1  0  0  0  0
 47 48  1  0  0  0  0
 47 52  1  0  0  0  0
 47129  1  6  0  0  0
 48 49  1  0  0  0  0
 48 50  1  0  0  0  0
 48130  1  1  0  0  0
 49131  1  0  0  0  0
 49132  1  0  0  0  0
 49133  1  0  0  0  0
 50 51  1  0  0  0  0
 50134  1  0  0  0  0
 50135  1  0  0  0  0
 51136  1  0  0  0  0
 51137  1  0  0  0  0
 51138  1  0  0  0  0
 52 53  1  0  0  0  0
 53 54  2  0  0  0  0
 53 55  1  0  0  0  0
 55 60  1  0  0  0  0
 55 56  1  0  0  0  0
 55139  1  1  0  0  0
 56 57  1  0  0  0  0
 56 58  1  0  0  0  0
 56 59  1  0  0  0  0
 57140  1  0  0  0  0
 57141  1  0  0  0  0
 57142  1  0  0  0  0
 58143  1  0  0  0  0
 58144  1  0  0  0  0
 58145  1  0  0  0  0
 59146  1  0  0  0  0
 60 61  1  0  0  0  0
 60 62  1  0  0  0  0
 61147  1  0  0  0  0
 61148  1  0  0  0  0
 61149  1  0  0  0  0
 62 63  2  0  0  0  0
 62 64  1  0  0  0  0
 64 69  1  0  0  0  0
 64 65  1  0  0  0  0
 64150  1  6  0  0  0
 65 66  1  0  0  0  0
 65151  1  0  0  0  0
 65152  1  0  0  0  0
 66 67  1  0  0  0  0
 66 68  1  0  0  0  0
 66153  1  0  0  0  0
 67154  1  0  0  0  0
 67155  1  0  0  0  0
 67156  1  0  0  0  0
 68157  1  0  0  0  0
 68158  1  0  0  0  0
 68159  1  0  0  0  0
 69 70  1  0  0  0  0
 69160  1  0  0  0  0
 70 71  2  0  0  0  0
 70 72  1  0  0  0  0
 72 76  1  0  0  0  0
 72 73  1  0  0  0  0
 72161  1  1  0  0  0
 73 74  1  0  0  0  0
 73 75  1  0  0  0  0
 73162  1  0  0  0  0
 74163  1  0  0  0  0
 74164  1  0  0  0  0
 74165  1  0  0  0  0
 75166  1  0  0  0  0
 75167  1  0  0  0  0
 75168  1  0  0  0  0
 76 77  1  0  0  0  0
 76 78  1  0  0  0  0
 77169  1  0  0  0  0
 77170  1  0  0  0  0
 77171  1  0  0  0  0
 78 79  2  0  0  0  0
M  END
>  <Energy>
588.766

$$$$