44285881
  -OEChem-03242010103D

 75 76  0     1  0  0  0  0  0999 V2000
   -1.5116   -0.1906    0.8300 O   0  0  0  0  0  0  0  0  0  0  0  0
    0.4034   -2.0778    0.0861 O   0  0  0  0  0  0  0  0  0  0  0  0
    0.6396    3.5539   -1.0758 O   0  0  0  0  0  0  0  0  0  0  0  0
    2.0562   -0.3970   -2.0186 O   0  0  0  0  0  0  0  0  0  0  0  0
   -1.5507    0.1584   -1.4528 O   0  0  0  0  0  0  0  0  0  0  0  0
    0.7268   -3.6866    1.6929 O   0  0  0  0  0  0  0  0  0  0  0  0
    2.0018    0.3030    0.1983 N   0  0  0  0  0  0  0  0  0  0  0  0
    1.9315    1.7431   -0.1376 C   0  0  2  0  0  0  0  0  0  0  0  0
    0.6043    2.1434   -0.8314 C   0  0  1  0  0  0  0  0  0  0  0  0
    3.1671    2.1963   -0.9275 C   0  0  0  0  0  0  0  0  0  0  0  0
    1.7631   -2.1159   -0.3826 C   0  0  2  0  0  0  0  0  0  0  0  0
   -2.1248   -1.4986    0.7112 C   0  0  2  0  0  0  0  0  0  0  0  0
   -0.6433    1.8479    0.0186 C   0  0  0  0  0  0  0  0  0  0  0  0
   -3.5770   -1.3616    1.1529 C   0  0  0  0  0  0  0  0  0  0  0  0
    1.9717   -0.6685   -0.8175 C   0  0  0  0  0  0  0  0  0  0  0  0
    1.8507   -3.1014   -1.5384 C   0  0  0  0  0  0  0  0  0  0  0  0
   -4.3277   -0.3564    0.2813 C   0  0  0  0  0  0  0  0  0  0  0  0
   -1.3631   -2.4783    1.6179 C   0  0  0  0  0  0  0  0  0  0  0  0
   -5.7976   -0.1905    0.6776 C   0  0  0  0  0  0  0  0  0  0  0  0
    4.4309    1.9148   -0.1696 C   0  0  0  0  0  0  0  0  0  0  0  0
    2.0853    0.0061    1.6301 C   0  0  0  0  0  0  0  0  0  0  0  0
   -1.2780    0.5163   -0.3142 C   0  0  0  0  0  0  0  0  0  0  0  0
   -6.5341    0.8690   -0.1451 C   0  0  0  0  0  0  0  0  0  0  0  0
    0.0324   -2.8416    1.1419 C   0  0  0  0  0  0  0  0  0  0  0  0
    2.1650   -4.5055   -1.0258 C   0  0  0  0  0  0  0  0  0  0  0  0
    0.5528   -3.1028   -2.3435 C   0  0  0  0  0  0  0  0  0  0  0  0
   -7.9892    1.0090    0.3082 C   0  0  0  0  0  0  0  0  0  0  0  0
    4.9498    2.8732    0.7009 C   0  0  0  0  0  0  0  0  0  0  0  0
    5.0868    0.6951   -0.3352 C   0  0  0  0  0  0  0  0  0  0  0  0
   -8.7172    2.0935   -0.4859 C   0  0  0  0  0  0  0  0  0  0  0  0
    6.1248    2.6119    1.4057 C   0  0  0  0  0  0  0  0  0  0  0  0
    6.2617    0.4336    0.3695 C   0  0  0  0  0  0  0  0  0  0  0  0
  -10.1723    2.2125   -0.0617 C   0  0  0  0  0  0  0  0  0  0  0  0
    6.7808    1.3921    1.2401 C   0  0  0  0  0  0  0  0  0  0  0  0
    1.9558    2.2980    0.8126 H   0  0  0  0  0  0  0  0  0  0  0  0
    0.5332    1.6598   -1.8114 H   0  0  0  0  0  0  0  0  0  0  0  0
    3.1169    3.2740   -1.1294 H   0  0  0  0  0  0  0  0  0  0  0  0
    3.2175    1.7289   -1.9173 H   0  0  0  0  0  0  0  0  0  0  0  0
    2.4817   -2.3752    0.3996 H   0  0  0  0  0  0  0  0  0  0  0  0
   -2.0893   -1.8597   -0.3243 H   0  0  0  0  0  0  0  0  0  0  0  0
   -1.4201    2.6055   -0.1444 H   0  0  0  0  0  0  0  0  0  0  0  0
   -0.4014    1.8972    1.0864 H   0  0  0  0  0  0  0  0  0  0  0  0
   -4.0766   -2.3365    1.1071 H   0  0  0  0  0  0  0  0  0  0  0  0
   -3.6184   -1.0190    2.1945 H   0  0  0  0  0  0  0  0  0  0  0  0
    2.6790   -2.8170   -2.1999 H   0  0  0  0  0  0  0  0  0  0  0  0
   -3.8582    0.6307    0.3537 H   0  0  0  0  0  0  0  0  0  0  0  0
   -4.2736   -0.6657   -0.7695 H   0  0  0  0  0  0  0  0  0  0  0  0
   -1.9239   -3.4169    1.6911 H   0  0  0  0  0  0  0  0  0  0  0  0
   -1.2494   -2.0438    2.6178 H   0  0  0  0  0  0  0  0  0  0  0  0
   -6.3087   -1.1552    0.5692 H   0  0  0  0  0  0  0  0  0  0  0  0
   -5.8521    0.0785    1.7400 H   0  0  0  0  0  0  0  0  0  0  0  0
    2.8579    0.6335    2.0845 H   0  0  0  0  0  0  0  0  0  0  0  0
    2.3366   -1.0298    1.8455 H   0  0  0  0  0  0  0  0  0  0  0  0
    1.1205    0.2380    2.0891 H   0  0  0  0  0  0  0  0  0  0  0  0
   -6.5010    0.5975   -1.2070 H   0  0  0  0  0  0  0  0  0  0  0  0
   -6.0219    1.8331   -0.0409 H   0  0  0  0  0  0  0  0  0  0  0  0
    2.3486   -5.1820   -1.8680 H   0  0  0  0  0  0  0  0  0  0  0  0
    3.0637   -4.5089   -0.4002 H   0  0  0  0  0  0  0  0  0  0  0  0
    1.3382   -4.9287   -0.4484 H   0  0  0  0  0  0  0  0  0  0  0  0
    0.2618   -2.1001   -2.6703 H   0  0  0  0  0  0  0  0  0  0  0  0
    0.6800   -3.7097   -3.2476 H   0  0  0  0  0  0  0  0  0  0  0  0
   -0.2841   -3.5405   -1.7884 H   0  0  0  0  0  0  0  0  0  0  0  0
   -0.1517    3.7812   -1.5934 H   0  0  0  0  0  0  0  0  0  0  0  0
   -8.0211    1.2549    1.3766 H   0  0  0  0  0  0  0  0  0  0  0  0
   -8.5057    0.0496    0.1818 H   0  0  0  0  0  0  0  0  0  0  0  0
    4.4470    3.8265    0.8407 H   0  0  0  0  0  0  0  0  0  0  0  0
    4.7107   -0.0569   -1.0221 H   0  0  0  0  0  0  0  0  0  0  0  0
   -8.6737    1.8634   -1.5569 H   0  0  0  0  0  0  0  0  0  0  0  0
   -8.2189    3.0591   -0.3409 H   0  0  0  0  0  0  0  0  0  0  0  0
    6.5287    3.3579    2.0839 H   0  0  0  0  0  0  0  0  0  0  0  0
    6.7747   -0.5145    0.2375 H   0  0  0  0  0  0  0  0  0  0  0  0
  -10.2516    2.4722    0.9989 H   0  0  0  0  0  0  0  0  0  0  0  0
  -10.7073    1.2718   -0.2264 H   0  0  0  0  0  0  0  0  0  0  0  0
  -10.6734    2.9941   -0.6412 H   0  0  0  0  0  0  0  0  0  0  0  0
    7.6960    1.1888    1.7883 H   0  0  0  0  0  0  0  0  0  0  0  0
  1 12  1  0  0  0  0
  1 22  1  0  0  0  0
  2 11  1  0  0  0  0
  2 24  1  0  0  0  0
  3  9  1  0  0  0  0
  3 63  1  0  0  0  0
  4 15  2  0  0  0  0
  5 22  2  0  0  0  0
  6 24  2  0  0  0  0
  7  8  1  0  0  0  0
  7 15  1  0  0  0  0
  7 21  1  0  0  0  0
  8  9  1  0  0  0  0
  8 10  1  0  0  0  0
  8 35  1  0  0  0  0
  9 13  1  0  0  0  0
  9 36  1  0  0  0  0
 10 20  1  0  0  0  0
 10 37  1  0  0  0  0
 10 38  1  0  0  0  0
 11 15  1  0  0  0  0
 11 16  1  0  0  0  0
 11 39  1  0  0  0  0
 12 14  1  0  0  0  0
 12 18  1  0  0  0  0
 12 40  1  0  0  0  0
 13 22  1  0  0  0  0
 13 41  1  0  0  0  0
 13 42  1  0  0  0  0
 14 17  1  0  0  0  0
 14 43  1  0  0  0  0
 14 44  1  0  0  0  0
 16 25  1  0  0  0  0
 16 26  1  0  0  0  0
 16 45  1  0  0  0  0
 17 19  1  0  0  0  0
 17 46  1  0  0  0  0
 17 47  1  0  0  0  0
 18 24  1  0  0  0  0
 18 48  1  0  0  0  0
 18 49  1  0  0  0  0
 19 23  1  0  0  0  0
 19 50  1  0  0  0  0
 19 51  1  0  0  0  0
 20 28  2  0  0  0  0
 20 29  1  0  0  0  0
 21 52  1  0  0  0  0
 21 53  1  0  0  0  0
 21 54  1  0  0  0  0
 23 27  1  0  0  0  0
 23 55  1  0  0  0  0
 23 56  1  0  0  0  0
 25 57  1  0  0  0  0
 25 58  1  0  0  0  0
 25 59  1  0  0  0  0
 26 60  1  0  0  0  0
 26 61  1  0  0  0  0
 26 62  1  0  0  0  0
 27 30  1  0  0  0  0
 27 64  1  0  0  0  0
 27 65  1  0  0  0  0
 28 31  1  0  0  0  0
 28 66  1  0  0  0  0
 29 32  2  0  0  0  0
 29 67  1  0  0  0  0
 30 33  1  0  0  0  0
 30 68  1  0  0  0  0
 30 69  1  0  0  0  0
 31 34  2  0  0  0  0
 31 70  1  0  0  0  0
 32 34  1  0  0  0  0
 32 71  1  0  0  0  0
 33 72  1  0  0  0  0
 33 73  1  0  0  0  0
 33 74  1  0  0  0  0
 34 75  1  0  0  0  0
M  END
> <PUBCHEM_COMPOUND_CID>
44285881

> <PUBCHEM_CONFORMER_RMSD>
1.2

> <PUBCHEM_CONFORMER_DIVERSEORDER>
1
102
111
113
89
8
81
96
83
108
99
80
47
109
88
39
79
31
98
71
25
24
53
58
77
74
69
21
107
23
46
37
10
44
94
61
22
95
104
19
48
112
55
14
59
56
40
11
54
2
85
72
103
87
100
17
110
78
93
43
45
60
27
20
105
67
62
57
75
49
70
36
51
91
30
106
12
64
84
34
38
26
86
63
42
73
35
101
13
82
92
33
6
29
16
90
65
97
18
4
9
41
68
3
76
32
66
28
7
52
15
50
5

> <PUBCHEM_MMFF94_PARTIAL_CHARGES>
30
1 -0.43
10 0.14
11 0.34
12 0.28
13 0.06
15 0.57
18 0.06
2 -0.43
20 -0.14
21 0.3
22 0.66
24 0.66
28 -0.15
29 -0.15
3 -0.68
31 -0.15
32 -0.15
34 -0.15
4 -0.57
5 -0.57
6 -0.57
63 0.4
66 0.15
67 0.15
7 -0.66
70 0.15
71 0.15
75 0.15
8 0.3
9 0.28

> <PUBCHEM_EFFECTIVE_ROTOR_COUNT>
10.8

> <PUBCHEM_PHARMACOPHORE_FEATURES>
10
1 3 acceptor
1 3 donor
1 33 hydrophobe
1 4 acceptor
1 5 acceptor
1 6 acceptor
3 14 17 19 hydrophobe
3 16 25 26 hydrophobe
3 23 27 30 hydrophobe
6 20 28 29 31 32 34 rings

> <PUBCHEM_HEAVY_ATOM_COUNT>
34

> <PUBCHEM_ATOM_DEF_STEREO_COUNT>
4

> <PUBCHEM_ATOM_UDEF_STEREO_COUNT>
0

> <PUBCHEM_BOND_DEF_STEREO_COUNT>
0

> <PUBCHEM_BOND_UDEF_STEREO_COUNT>
0

> <PUBCHEM_ISOTOPIC_ATOM_COUNT>
0

> <PUBCHEM_COMPONENT_COUNT>
1

> <PUBCHEM_CACTVS_TAUTO_COUNT>
8

> <PUBCHEM_CONFORMER_ID>
02A3BFB900000001

> <PUBCHEM_MMFF94_ENERGY>
70.1857

> <PUBCHEM_FEATURE_SELFOVERLAP>
50.76

> <PUBCHEM_SHAPE_FINGERPRINT>
10006869 2 18336819819540579282
10675989 125 18408329882663790337
10906281 52 18262534683131588045
11297750 10 17974290924109631030
11719270 70 18412547634425202660
12422481 6 18189059853408060154
14117953 113 18335426768056739588
14725015 67 18263363599652342842
15238133 3 17968385661894401116
15324884 4 17909588191068247846
15420108 30 18269547390074867662
16087824 20 18260267442958544292
16728300 4 17097462381648578808
20554085 129 18059283348697916384
20587220 17 18272365322813323581
20715895 44 18409453625779119193
21033648 29 18057589053515972920
21133410 38 17986692393559384041
21298829 104 18409730647882604793
21403212 168 18408318895429955232
3411729 13 18409448072971831235
3633792 109 18271530810567282321
38695281 34 18272936058809040759
4093350 32 18130225957295532981
469060 322 10806839811183370454
5171179 24 18126297341804007550
6004065 56 18127972108255160361
70251023 43 17980206288267470119

> <PUBCHEM_SHAPE_MULTIPOLES>
659.51
19.21
4.77
1.62
49.5
3.74
-0.18
-22.88
3.01
-3.47
-0.79
-0.99
1.09
2.39

> <PUBCHEM_SHAPE_SELFOVERLAP>
1333.142

> <PUBCHEM_SHAPE_VOLUME>
381.5

> <PUBCHEM_COORDINATE_TYPE>
2
5
10

$$$$