10073584
  -OEChem-03242010103D

 77 78  0     1  0  0  0  0  0999 V2000
   -0.0473   -1.2889    1.2554 O   0  0  0  0  0  0  0  0  0  0  0  0
   -2.5894   -1.0749   -0.3847 O   0  0  0  0  0  0  0  0  0  0  0  0
   -4.9715    0.9248    0.4271 O   0  0  0  0  0  0  0  0  0  0  0  0
   -1.2347   -1.3596   -2.2340 O   0  0  0  0  0  0  0  0  0  0  0  0
   -1.2127   -2.4801    2.8365 O   0  0  0  0  0  0  0  0  0  0  0  0
   -2.8469    1.5548    1.1173 N   0  0  0  0  0  0  0  0  0  0  0  0
   -1.3676    1.5000    0.9931 C   0  0  2  0  0  0  0  0  0  0  0  0
    0.2097   -2.4678    0.4547 C   0  0  1  0  0  0  0  0  0  0  0  0
   -1.0580   -2.8708   -0.3329 C   0  0  1  0  0  0  0  0  0  0  0  0
    1.4175   -2.1360   -0.4184 C   0  0  0  0  0  0  0  0  0  0  0  0
   -0.6323    1.1836    2.3164 C   0  0  0  0  0  0  0  0  0  0  0  0
   -3.1642    0.1251   -0.9267 C   0  0  1  0  0  0  0  0  0  0  0  0
    2.6115   -1.7128    0.4310 C   0  0  0  0  0  0  0  0  0  0  0  0
   -0.8296    2.7977    0.3786 C   0  0  0  0  0  0  0  0  0  0  0  0
   -4.2487   -0.2512   -1.9330 C   0  0  0  0  0  0  0  0  0  0  0  0
   -1.0839   -0.0916    3.0406 C   0  0  0  0  0  0  0  0  0  0  0  0
   -3.7469    0.8928    0.2633 C   0  0  0  0  0  0  0  0  0  0  0  0
    3.8293   -1.4113   -0.4456 C   0  0  0  0  0  0  0  0  0  0  0  0
   -1.6213   -1.6983   -1.1233 C   0  0  0  0  0  0  0  0  0  0  0  0
   -0.8421   -4.0701   -1.2532 C   0  0  0  0  0  0  0  0  0  0  0  0
    5.0187   -0.9493    0.3991 C   0  0  0  0  0  0  0  0  0  0  0  0
   -0.7976   -1.4212    2.3774 C   0  0  0  0  0  0  0  0  0  0  0  0
   -3.4026    2.4238    2.1583 C   0  0  0  0  0  0  0  0  0  0  0  0
    0.5123    2.5850   -0.2596 C   0  0  0  0  0  0  0  0  0  0  0  0
    6.2449   -0.5648   -0.4340 C   0  0  0  0  0  0  0  0  0  0  0  0
   -5.2882   -1.1644   -1.2866 C   0  0  0  0  0  0  0  0  0  0  0  0
   -4.9136    1.0012   -2.5002 C   0  0  0  0  0  0  0  0  0  0  0  0
    7.4078   -0.0336    0.4050 C   0  0  0  0  0  0  0  0  0  0  0  0
    1.6762    2.7568    0.4898 C   0  0  0  0  0  0  0  0  0  0  0  0
    0.5956    2.2149   -1.6020 C   0  0  0  0  0  0  0  0  0  0  0  0
    8.6032    0.3214   -0.4663 C   0  0  0  0  0  0  0  0  0  0  0  0
    2.9232    2.5590   -0.1030 C   0  0  0  0  0  0  0  0  0  0  0  0
    1.8427    2.0170   -2.1948 C   0  0  0  0  0  0  0  0  0  0  0  0
    3.0064    2.1890   -1.4452 C   0  0  0  0  0  0  0  0  0  0  0  0
   -1.1207    0.6948    0.3051 H   0  0  0  0  0  0  0  0  0  0  0  0
    0.4891   -3.2915    1.1256 H   0  0  0  0  0  0  0  0  0  0  0  0
   -1.8354   -3.1678    0.3836 H   0  0  0  0  0  0  0  0  0  0  0  0
    1.1762   -1.3122   -1.1002 H   0  0  0  0  0  0  0  0  0  0  0  0
    1.6970   -3.0012   -1.0289 H   0  0  0  0  0  0  0  0  0  0  0  0
    0.4431    1.0889    2.1376 H   0  0  0  0  0  0  0  0  0  0  0  0
   -0.7533    2.0254    3.0101 H   0  0  0  0  0  0  0  0  0  0  0  0
   -2.4031    0.7438   -1.4162 H   0  0  0  0  0  0  0  0  0  0  0  0
    2.3677   -0.8177    1.0153 H   0  0  0  0  0  0  0  0  0  0  0  0
    2.8617   -2.5077    1.1440 H   0  0  0  0  0  0  0  0  0  0  0  0
   -1.5243    3.1704   -0.3866 H   0  0  0  0  0  0  0  0  0  0  0  0
   -0.7700    3.5989    1.1265 H   0  0  0  0  0  0  0  0  0  0  0  0
   -3.7869   -0.8076   -2.7578 H   0  0  0  0  0  0  0  0  0  0  0  0
   -2.1613   -0.0542    3.2299 H   0  0  0  0  0  0  0  0  0  0  0  0
   -0.5765   -0.1215    4.0127 H   0  0  0  0  0  0  0  0  0  0  0  0
    4.1110   -2.3098   -1.0078 H   0  0  0  0  0  0  0  0  0  0  0  0
    3.5763   -0.6418   -1.1819 H   0  0  0  0  0  0  0  0  0  0  0  0
   -1.7930   -4.3841   -1.6984 H   0  0  0  0  0  0  0  0  0  0  0  0
   -0.4328   -4.9197   -0.6973 H   0  0  0  0  0  0  0  0  0  0  0  0
   -0.1645   -3.8396   -2.0815 H   0  0  0  0  0  0  0  0  0  0  0  0
    4.7166   -0.0843    1.0027 H   0  0  0  0  0  0  0  0  0  0  0  0
    5.2961   -1.7439    1.1026 H   0  0  0  0  0  0  0  0  0  0  0  0
   -2.9932    3.4308    2.0426 H   0  0  0  0  0  0  0  0  0  0  0  0
   -3.1405    2.0328    3.1437 H   0  0  0  0  0  0  0  0  0  0  0  0
   -4.4918    2.4900    2.0964 H   0  0  0  0  0  0  0  0  0  0  0  0
    6.5770   -1.4410   -1.0046 H   0  0  0  0  0  0  0  0  0  0  0  0
    5.9545    0.1980   -1.1672 H   0  0  0  0  0  0  0  0  0  0  0  0
   -6.0733   -0.6413   -0.7353 H   0  0  0  0  0  0  0  0  0  0  0  0
   -4.8498   -1.9281   -0.6374 H   0  0  0  0  0  0  0  0  0  0  0  0
   -5.8168   -1.7062   -2.0816 H   0  0  0  0  0  0  0  0  0  0  0  0
   -5.5189    1.5551   -1.7788 H   0  0  0  0  0  0  0  0  0  0  0  0
   -4.1634    1.6865   -2.9098 H   0  0  0  0  0  0  0  0  0  0  0  0
   -5.5823    0.7235   -3.3233 H   0  0  0  0  0  0  0  0  0  0  0  0
    7.7083   -0.7877    1.1415 H   0  0  0  0  0  0  0  0  0  0  0  0
    7.0884    0.8552    0.9611 H   0  0  0  0  0  0  0  0  0  0  0  0
    1.6295    3.0584    1.5327 H   0  0  0  0  0  0  0  0  0  0  0  0
   -0.3031    2.0752   -2.1967 H   0  0  0  0  0  0  0  0  0  0  0  0
    8.9653   -0.5557   -1.0121 H   0  0  0  0  0  0  0  0  0  0  0  0
    9.4234    0.6994    0.1520 H   0  0  0  0  0  0  0  0  0  0  0  0
    8.3416    1.0960   -1.1943 H   0  0  0  0  0  0  0  0  0  0  0  0
    3.8298    2.6940    0.4797 H   0  0  0  0  0  0  0  0  0  0  0  0
    1.9077    1.7270   -3.2394 H   0  0  0  0  0  0  0  0  0  0  0  0
    3.9774    2.0344   -1.9064 H   0  0  0  0  0  0  0  0  0  0  0  0
  1  8  1  0  0  0  0
  1 22  1  0  0  0  0
  2 12  1  0  0  0  0
  2 19  1  0  0  0  0
  3 17  2  0  0  0  0
  4 19  2  0  0  0  0
  5 22  2  0  0  0  0
  6  7  1  0  0  0  0
  6 17  1  0  0  0  0
  6 23  1  0  0  0  0
  7 11  1  0  0  0  0
  7 14  1  0  0  0  0
  7 35  1  0  0  0  0
  8  9  1  0  0  0  0
  8 10  1  0  0  0  0
  8 36  1  0  0  0  0
  9 19  1  0  0  0  0
  9 20  1  0  0  0  0
  9 37  1  0  0  0  0
 10 13  1  0  0  0  0
 10 38  1  0  0  0  0
 10 39  1  0  0  0  0
 11 16  1  0  0  0  0
 11 40  1  0  0  0  0
 11 41  1  0  0  0  0
 12 15  1  0  0  0  0
 12 17  1  0  0  0  0
 12 42  1  0  0  0  0
 13 18  1  0  0  0  0
 13 43  1  0  0  0  0
 13 44  1  0  0  0  0
 14 24  1  0  0  0  0
 14 45  1  0  0  0  0
 14 46  1  0  0  0  0
 15 26  1  0  0  0  0
 15 27  1  0  0  0  0
 15 47  1  0  0  0  0
 16 22  1  0  0  0  0
 16 48  1  0  0  0  0
 16 49  1  0  0  0  0
 18 21  1  0  0  0  0
 18 50  1  0  0  0  0
 18 51  1  0  0  0  0
 20 52  1  0  0  0  0
 20 53  1  0  0  0  0
 20 54  1  0  0  0  0
 21 25  1  0  0  0  0
 21 55  1  0  0  0  0
 21 56  1  0  0  0  0
 23 57  1  0  0  0  0
 23 58  1  0  0  0  0
 23 59  1  0  0  0  0
 24 29  2  0  0  0  0
 24 30  1  0  0  0  0
 25 28  1  0  0  0  0
 25 60  1  0  0  0  0
 25 61  1  0  0  0  0
 26 62  1  0  0  0  0
 26 63  1  0  0  0  0
 26 64  1  0  0  0  0
 27 65  1  0  0  0  0
 27 66  1  0  0  0  0
 27 67  1  0  0  0  0
 28 31  1  0  0  0  0
 28 68  1  0  0  0  0
 28 69  1  0  0  0  0
 29 32  1  0  0  0  0
 29 70  1  0  0  0  0
 30 33  2  0  0  0  0
 30 71  1  0  0  0  0
 31 72  1  0  0  0  0
 31 73  1  0  0  0  0
 31 74  1  0  0  0  0
 32 34  2  0  0  0  0
 32 75  1  0  0  0  0
 33 34  1  0  0  0  0
 33 76  1  0  0  0  0
 34 77  1  0  0  0  0
M  END
> <PUBCHEM_COMPOUND_CID>
10073584

> <PUBCHEM_CONFORMER_RMSD>
1

> <PUBCHEM_CONFORMER_DIVERSEORDER>
1
65
13
111
139
158
73
74
144
97
63
87
66
59
162
58
23
8
147
155
14
93
106
122
96
159
72
166
126
114
101
102
78
21
20
49
153
67
108
56
12
117
48
38
156
154
54
85
24
115
109
129
46
148
143
11
91
103
141
134
18
30
142
80
145
127
113
61
130
31
95
120
125
52
28
121
43
152
57
70
160
47
25
60
79
42
151
53
163
84
164
128
131
135
90
132
107
22
146
64
29
94
19
4
133
118
77
44
140
40
2
116
68
45
100
37
98
15
7
69
88
86
50
112
9
124
71
136
33
149
138
92
157
62
161
3
36
27
39
83
165
35
34
32
75
76
81
110
123
6
82
16
99
10
150
105
104
51
41
137
89
17
55
119
5
26

> <PUBCHEM_MMFF94_PARTIAL_CHARGES>
27
1 -0.43
12 0.34
14 0.14
16 0.06
17 0.57
19 0.66
2 -0.43
22 0.66
23 0.3
24 -0.14
29 -0.15
3 -0.57
30 -0.15
32 -0.15
33 -0.15
34 -0.15
4 -0.57
5 -0.57
6 -0.66
7 0.3
70 0.15
71 0.15
75 0.15
76 0.15
77 0.15
8 0.28
9 0.06

> <PUBCHEM_EFFECTIVE_ROTOR_COUNT>
10.8

> <PUBCHEM_PHARMACOPHORE_FEATURES>
8
1 3 acceptor
1 31 hydrophobe
1 4 acceptor
1 5 acceptor
3 10 13 18 hydrophobe
3 15 26 27 hydrophobe
3 21 25 28 hydrophobe
6 24 29 30 32 33 34 rings

> <PUBCHEM_HEAVY_ATOM_COUNT>
34

> <PUBCHEM_ATOM_DEF_STEREO_COUNT>
4

> <PUBCHEM_ATOM_UDEF_STEREO_COUNT>
0

> <PUBCHEM_BOND_DEF_STEREO_COUNT>
0

> <PUBCHEM_BOND_UDEF_STEREO_COUNT>
0

> <PUBCHEM_ISOTOPIC_ATOM_COUNT>
0

> <PUBCHEM_COMPONENT_COUNT>
1

> <PUBCHEM_CACTVS_TAUTO_COUNT>
1

> <PUBCHEM_CONFORMER_ID>
0099B5F000000001

> <PUBCHEM_MMFF94_ENERGY>
67.3705

> <PUBCHEM_FEATURE_SELFOVERLAP>
40.61

> <PUBCHEM_SHAPE_FINGERPRINT>
11513181 2 17984715419997042414
12156800 1 16050079939784811732
12467345 10 17988920063676957244
133893 2 18188202092900185097
14068700 675 18060128860861564936
14394314 77 18342742871088849208
14840074 17 18334580097148569248
15297060 5 17775007847236656043
17492 54 18336252449490810115
18336668 15 18408885135645037692
23419403 2 17897191150530929155
3383291 50 18341614858073719734
35225 105 17398999266283392301
463206 1 18411984697261964984
484989 97 18194389212381411183
513532 50 16341422952404708365

> <PUBCHEM_SHAPE_MULTIPOLES>
665.38
12.55
4.06
2.59
25.65
0.91
-1.05
-0.6
4.17
-0.46
0.3
-2.81
-0.16
-1.52

> <PUBCHEM_SHAPE_SELFOVERLAP>
1340.816

> <PUBCHEM_SHAPE_VOLUME>
385.4

> <PUBCHEM_COORDINATE_TYPE>
2
5
10

$$$$