71
 OpenBabel03292021513D

202202  0  0  1  0  0  0  0  0999 V2000
    3.3846   -1.5162   -3.9432 C   0  0  0  0  0  0  0  0  0  0  0  0
    3.2112   -1.0267   -5.3812 C   0  0  0  0  0  0  0  0  0  0  0  0
    4.3646   -0.7330   -6.3605 C   0  0  0  0  0  0  0  0  0  0  0  0
    5.7091   -0.6448   -6.2457 C   0  0  0  0  0  0  0  0  0  0  0  0
    6.7086   -0.2612   -7.4829 C   0  0  0  0  0  0  0  0  0  0  0  0
    8.1055    0.6250   -8.0037 C   0  0  1  0  0  0  0  0  0  0  0  0
    8.9864    0.7256   -6.7352 C   0  0  0  0  0  0  0  0  0  0  0  0
    8.9745    0.1627   -9.4032 C   0  0  1  0  0  0  0  0  0  0  0  0
    8.1448   -0.6163  -10.2536 O   0  0  0  0  0  0  0  0  0  0  0  0
   10.1461    1.1387  -10.3006 C   0  0  1  0  0  0  0  0  0  0  0  0
   10.2502    1.6634  -12.0079 C   0  0  0  0  0  0  0  0  0  0  0  0
    9.2638    1.6972  -12.7445 O   0  0  0  0  0  0  0  0  0  0  0  0
   11.5625    2.0518  -12.5611 N   0  0  0  0  0  0  0  0  0  0  0  0
   11.9709    2.7616  -14.0195 C   0  0  1  0  0  0  0  0  0  0  0  0
   12.0424    1.7730  -15.2789 C   0  0  0  0  0  0  0  0  0  0  0  0
   12.7754    2.2342  -16.5849 C   0  0  0  0  0  0  0  0  0  0  0  0
   12.2738    1.7806  -17.9555 C   0  0  0  0  0  0  0  0  0  0  0  0
   13.0434    4.0729  -13.9523 C   0  0  0  0  0  0  0  0  0  0  0  0
   12.7852    4.9576  -13.1238 O   0  0  0  0  0  0  0  0  0  0  0  0
   14.1723    4.2689  -14.8106 N   0  0  0  0  0  0  0  0  0  0  0  0
   15.0902    3.1554  -15.0309 C   0  0  0  0  0  0  0  0  0  0  0  0
   14.9513    5.5684  -14.7650 C   0  0  0  0  0  0  0  0  0  0  0  0
   14.6584    7.0313  -15.2713 C   0  0  0  0  0  0  0  0  0  0  0  0
   14.6812    7.9255  -14.4137 O   0  0  0  0  0  0  0  0  0  0  0  0
   14.5718    7.3789  -16.6292 N   0  0  0  0  0  0  0  0  0  0  0  0
   14.9105    6.4588  -17.7016 C   0  0  0  0  0  0  0  0  0  0  0  0
   14.3282    8.8276  -16.9943 C   0  0  2  0  0  0  0  0  0  0  0  0
   13.0399    9.0285  -17.8518 C   0  0  0  0  0  0  0  0  0  0  0  0
   11.7288    8.6680  -17.1444 C   0  0  0  0  0  0  0  0  0  0  0  0
   10.5066    9.1767  -17.9104 C   0  0  0  0  0  0  0  0  0  0  0  0
   11.5555    7.1826  -16.8339 C   0  0  0  0  0  0  0  0  0  0  0  0
   15.4607    9.5382  -17.7977 C   0  0  0  0  0  0  0  0  0  0  0  0
   15.9653    9.0072  -18.7960 O   0  0  0  0  0  0  0  0  0  0  0  0
   15.8543   10.8329  -17.5534 N   0  0  0  0  0  0  0  0  0  0  0  0
   16.0008   11.5849  -16.2741 C   0  0  2  0  0  0  0  0  0  0  0  0
   16.7137   10.7404  -15.1943 C   0  0  0  0  0  0  0  0  0  0  0  0
   16.9152   11.4841  -13.8736 C   0  0  0  0  0  0  0  0  0  0  0  0
   18.0795   10.2285  -15.6833 C   0  0  0  0  0  0  0  0  0  0  0  0
   14.6550   12.2307  -15.8201 C   0  0  0  0  0  0  0  0  0  0  0  0
   13.6376   11.5293  -15.7700 O   0  0  0  0  0  0  0  0  0  0  0  0
   14.5902   13.5973  -15.5013 N   0  0  0  0  0  0  0  0  0  0  0  0
   15.7088   14.5033  -15.3435 C   0  0  0  0  0  0  0  0  0  0  0  0
   13.2200   14.1554  -15.2492 C   0  0  2  0  0  0  0  0  0  0  0  0
   12.7871   15.1622  -16.3424 C   0  0  0  0  0  0  0  0  0  0  0  0
   12.7120   14.5740  -17.7669 C   0  0  0  0  0  0  0  0  0  0  0  0
   11.6853   13.4447  -17.8949 C   0  0  0  0  0  0  0  0  0  0  0  0
   12.3584   15.6832  -18.7637 C   0  0  0  0  0  0  0  0  0  0  0  0
   13.0933   14.8609  -13.8707 C   0  0  0  0  0  0  0  0  0  0  0  0
   13.7256   15.8875  -13.5958 O   0  0  0  0  0  0  0  0  0  0  0  0
   12.2956   14.3450  -12.8961 N   0  0  0  0  0  0  0  0  0  0  0  0
   11.4125   13.1726  -12.9201 C   0  0  1  0  0  0  0  0  0  0  0  0
   11.4480   12.5270  -11.5490 C   0  0  0  0  0  0  0  0  0  0  0  0
   10.0474   13.5683  -13.6022 C   0  0  0  0  0  0  0  0  0  0  0  0
   10.0780   14.3502  -14.5671 O   0  0  0  0  0  0  0  0  0  0  0  0
    8.8222   13.0244  -13.3860 N   0  0  0  0  0  0  0  0  0  0  0  0
    8.0839   12.6906  -12.1552 C   0  0  2  0  0  0  0  0  0  0  0  0
    8.2031   13.7957  -11.1065 C   0  0  0  0  0  0  0  0  0  0  0  0
    8.2973   11.2607  -11.5834 C   0  0  0  0  0  0  0  0  0  0  0  0
    8.9129   11.1252  -10.5289 O   0  0  0  0  0  0  0  0  0  0  0  0
    7.8118   10.1684  -12.3190 N   0  0  0  0  0  0  0  0  0  0  0  0
    6.4187   10.1829  -12.7544 C   0  0  0  0  0  0  0  0  0  0  0  0
    8.3609    8.7969  -12.0898 C   0  0  1  0  0  0  0  0  0  0  0  0
    9.8614    8.6244  -12.3225 C   0  0  0  0  0  0  0  0  0  0  0  0
   10.4446    8.8203  -13.7255 C   0  0  0  0  0  0  0  0  0  0  0  0
   10.0491   10.1556  -14.3292 C   0  0  0  0  0  0  0  0  0  0  0  0
   11.9663    8.7283  -13.5460 C   0  0  0  0  0  0  0  0  0  0  0  0
    7.8053    8.1425  -10.7895 C   0  0  0  0  0  0  0  0  0  0  0  0
    6.7000    7.5873  -10.8604 O   0  0  0  0  0  0  0  0  0  0  0  0
    8.4484    8.3028   -9.5607 N   0  0  0  0  0  0  0  0  0  0  0  0
    9.8795    8.5587   -9.4128 C   0  0  0  0  0  0  0  0  0  0  0  0
    7.8120    7.9159   -8.2798 C   0  0  1  0  0  0  0  0  0  0  0  0
    6.2832    8.0578   -8.1455 C   0  0  0  0  0  0  0  0  0  0  0  0
    5.7681    7.7850   -6.7129 C   0  0  0  0  0  0  0  0  0  0  0  0
    6.3246    8.7694   -5.6846 C   0  0  0  0  0  0  0  0  0  0  0  0
    4.2412    7.8223   -6.7042 C   0  0  0  0  0  0  0  0  0  0  0  0
    8.5239    6.6862   -7.6582 C   0  0  0  0  0  0  0  0  0  0  0  0
    9.2269    6.8692   -6.6596 O   0  0  0  0  0  0  0  0  0  0  0  0
    8.5042    5.4313   -8.2560 N   0  0  0  0  0  0  0  0  0  0  0  0
    7.1901    4.9298   -8.7208 C   0  0  0  0  0  0  0  0  0  0  0  0
    9.7662    4.7251   -8.7324 C   0  0  1  0  0  0  0  0  0  0  0  0
   11.0531    4.8843   -7.8497 C   0  0  0  0  0  0  0  0  0  0  0  0
   11.8940    6.1146   -8.1305 C   0  0  0  0  0  0  0  0  0  0  0  0
   10.8723    4.6029   -6.3569 C   0  0  0  0  0  0  0  0  0  0  0  0
    9.5652    3.2649   -9.3548 C   0  0  0  0  0  0  0  0  0  0  0  0
    8.5144    3.0426   -9.9743 O   0  0  0  0  0  0  0  0  0  0  0  0
   10.5481    2.2661   -9.4360 N   0  0  0  0  0  0  0  0  0  0  0  0
   11.5515    1.9155   -8.4371 C   0  0  0  0  0  0  0  0  0  0  0  0
    2.3907   -1.7585   -3.5265 H   0  0  0  0  0  0  0  0  0  0  0  0
    3.8096   -0.7512   -3.2878 H   0  0  0  0  0  0  0  0  0  0  0  0
    3.9788   -2.4303   -3.8769 H   0  0  0  0  0  0  0  0  0  0  0  0
    2.5931   -0.1192   -5.3277 H   0  0  0  0  0  0  0  0  0  0  0  0
    2.5729   -1.7743   -5.8737 H   0  0  0  0  0  0  0  0  0  0  0  0
    3.9593   -0.5348   -7.3506 H   0  0  0  0  0  0  0  0  0  0  0  0
    6.1658   -0.8054   -5.2674 H   0  0  0  0  0  0  0  0  0  0  0  0
    7.3396   -1.1102   -7.1877 H   0  0  0  0  0  0  0  0  0  0  0  0
    6.4993    0.7134   -7.0037 H   0  0  0  0  0  0  0  0  0  0  0  0
    7.7034    1.6163   -8.2351 H   0  0  0  0  0  0  0  0  0  0  0  0
    9.6237   -0.1561   -6.6156 H   0  0  0  0  0  0  0  0  0  0  0  0
    8.3792    0.7983   -5.8216 H   0  0  0  0  0  0  0  0  0  0  0  0
    9.5945    1.6232   -6.7346 H   0  0  0  0  0  0  0  0  0  0  0  0
    9.6601   -0.5757   -8.9569 H   0  0  0  0  0  0  0  0  0  0  0  0
    7.7630   -1.3278   -9.7074 H   0  0  0  0  0  0  0  0  0  0  0  0
   11.0031    0.4438  -10.3338 H   0  0  0  0  0  0  0  0  0  0  0  0
   12.3242    2.0492  -11.8993 H   0  0  0  0  0  0  0  0  0  0  0  0
   11.0358    3.3049  -14.2273 H   0  0  0  0  0  0  0  0  0  0  0  0
   12.5078    0.8331  -14.9574 H   0  0  0  0  0  0  0  0  0  0  0  0
   11.0133    1.5147  -15.5581 H   0  0  0  0  0  0  0  0  0  0  0  0
   13.7838    1.8097  -16.5578 H   0  0  0  0  0  0  0  0  0  0  0  0
   12.8478    3.3227  -16.6409 H   0  0  0  0  0  0  0  0  0  0  0  0
   12.0407    0.7148  -17.9902 H   0  0  0  0  0  0  0  0  0  0  0  0
   13.0652    1.9610  -18.7020 H   0  0  0  0  0  0  0  0  0  0  0  0
   11.4089    2.3646  -18.2798 H   0  0  0  0  0  0  0  0  0  0  0  0
   15.3931    3.1578  -16.0825 H   0  0  0  0  0  0  0  0  0  0  0  0
   14.6710    2.1972  -14.7248 H   0  0  0  0  0  0  0  0  0  0  0  0
   15.9968    3.3032  -14.4318 H   0  0  0  0  0  0  0  0  0  0  0  0
   15.9118    5.3660  -15.2667 H   0  0  0  0  0  0  0  0  0  0  0  0
   15.2144    5.6884  -13.7049 H   0  0  0  0  0  0  0  0  0  0  0  0
   14.7108    5.4310  -17.4151 H   0  0  0  0  0  0  0  0  0  0  0  0
   15.9756    6.5659  -17.9330 H   0  0  0  0  0  0  0  0  0  0  0  0
   14.3274    6.6899  -18.6007 H   0  0  0  0  0  0  0  0  0  0  0  0
   14.1954    9.3751  -16.0672 H   0  0  0  0  0  0  0  0  0  0  0  0
   12.9856   10.0925  -18.1295 H   0  0  0  0  0  0  0  0  0  0  0  0
   13.1094    8.4904  -18.8035 H   0  0  0  0  0  0  0  0  0  0  0  0
   11.7464    9.2074  -16.2135 H   0  0  0  0  0  0  0  0  0  0  0  0
   10.3836    8.6579  -18.8608 H   0  0  0  0  0  0  0  0  0  0  0  0
   10.5799   10.2527  -18.0987 H   0  0  0  0  0  0  0  0  0  0  0  0
    9.5978    9.0183  -17.3127 H   0  0  0  0  0  0  0  0  0  0  0  0
   11.8309    6.5592  -17.6862 H   0  0  0  0  0  0  0  0  0  0  0  0
   10.5238    6.9521  -16.5562 H   0  0  0  0  0  0  0  0  0  0  0  0
   12.1627    6.8883  -15.9737 H   0  0  0  0  0  0  0  0  0  0  0  0
   16.5210   11.1116  -18.2626 H   0  0  0  0  0  0  0  0  0  0  0  0
   16.6797   12.3900  -16.5725 H   0  0  0  0  0  0  0  0  0  0  0  0
   16.0993    9.8655  -14.9730 H   0  0  0  0  0  0  0  0  0  0  0  0
   17.5624   12.3578  -13.9993 H   0  0  0  0  0  0  0  0  0  0  0  0
   17.3888   10.8239  -13.1369 H   0  0  0  0  0  0  0  0  0  0  0  0
   15.9635   11.8117  -13.4466 H   0  0  0  0  0  0  0  0  0  0  0  0
   18.7742   11.0571  -15.8584 H   0  0  0  0  0  0  0  0  0  0  0  0
   17.9976    9.6580  -16.6127 H   0  0  0  0  0  0  0  0  0  0  0  0
   18.5292    9.5611  -14.9404 H   0  0  0  0  0  0  0  0  0  0  0  0
   16.6602   14.0750  -15.6669 H   0  0  0  0  0  0  0  0  0  0  0  0
   15.8292   14.7517  -14.2826 H   0  0  0  0  0  0  0  0  0  0  0  0
   15.5445   15.4150  -15.9203 H   0  0  0  0  0  0  0  0  0  0  0  0
   12.4896   13.3585  -15.2752 H   0  0  0  0  0  0  0  0  0  0  0  0
   11.8049   15.5789  -16.0801 H   0  0  0  0  0  0  0  0  0  0  0  0
   13.4677   16.0245  -16.3503 H   0  0  0  0  0  0  0  0  0  0  0  0
   13.6981   14.1807  -18.0428 H   0  0  0  0  0  0  0  0  0  0  0  0
   10.6811   13.7889  -17.6288 H   0  0  0  0  0  0  0  0  0  0  0  0
   11.9278   12.5948  -17.2546 H   0  0  0  0  0  0  0  0  0  0  0  0
   11.6554   13.0676  -18.9221 H   0  0  0  0  0  0  0  0  0  0  0  0
   11.3662   16.0982  -18.5568 H   0  0  0  0  0  0  0  0  0  0  0  0
   12.3574   15.2970  -19.7881 H   0  0  0  0  0  0  0  0  0  0  0  0
   13.0855   16.5001  -18.7141 H   0  0  0  0  0  0  0  0  0  0  0  0
   12.2230   14.9678  -12.0906 H   0  0  0  0  0  0  0  0  0  0  0  0
   11.8675   12.4404  -13.6025 H   0  0  0  0  0  0  0  0  0  0  0  0
   10.9972   13.1414  -10.7862 H   0  0  0  0  0  0  0  0  0  0  0  0
   12.4887   12.3528  -11.2475 H   0  0  0  0  0  0  0  0  0  0  0  0
   10.9735   11.5500  -11.5692 H   0  0  0  0  0  0  0  0  0  0  0  0
    8.2100   13.3951  -14.1042 H   0  0  0  0  0  0  0  0  0  0  0  0
    7.0346   12.7363  -12.4570 H   0  0  0  0  0  0  0  0  0  0  0  0
    9.2257   14.1488  -10.9748 H   0  0  0  0  0  0  0  0  0  0  0  0
    7.8247   13.4712  -10.1326 H   0  0  0  0  0  0  0  0  0  0  0  0
    7.6191   14.6686  -11.4201 H   0  0  0  0  0  0  0  0  0  0  0  0
    6.1034   11.1549  -13.1282 H   0  0  0  0  0  0  0  0  0  0  0  0
    5.7846    9.9303  -11.8950 H   0  0  0  0  0  0  0  0  0  0  0  0
    6.2639    9.4500  -13.5509 H   0  0  0  0  0  0  0  0  0  0  0  0
    7.9198    8.1827  -12.8897 H   0  0  0  0  0  0  0  0  0  0  0  0
   10.1433    7.6115  -12.0069 H   0  0  0  0  0  0  0  0  0  0  0  0
   10.3988    9.3326  -11.7003 H   0  0  0  0  0  0  0  0  0  0  0  0
   10.1071    8.0193  -14.3911 H   0  0  0  0  0  0  0  0  0  0  0  0
   10.1957   10.9243  -13.5832 H   0  0  0  0  0  0  0  0  0  0  0  0
    9.0036   10.1593  -14.6467 H   0  0  0  0  0  0  0  0  0  0  0  0
   10.6456   10.4561  -15.1892 H   0  0  0  0  0  0  0  0  0  0  0  0
   12.3177    9.2984  -12.6783 H   0  0  0  0  0  0  0  0  0  0  0  0
   12.5132    9.1211  -14.3984 H   0  0  0  0  0  0  0  0  0  0  0  0
   12.2582    7.6845  -13.3922 H   0  0  0  0  0  0  0  0  0  0  0  0
   10.1794    9.5044   -9.8354 H   0  0  0  0  0  0  0  0  0  0  0  0
   10.4330    7.7407   -9.8818 H   0  0  0  0  0  0  0  0  0  0  0  0
   10.1705    8.6247   -8.3635 H   0  0  0  0  0  0  0  0  0  0  0  0
    8.1597    8.7415   -7.6356 H   0  0  0  0  0  0  0  0  0  0  0  0
    5.7523    7.3933   -8.8306 H   0  0  0  0  0  0  0  0  0  0  0  0
    6.0050    9.0785   -8.4418 H   0  0  0  0  0  0  0  0  0  0  0  0
    6.0730    6.7761   -6.4112 H   0  0  0  0  0  0  0  0  0  0  0  0
    6.0896    9.8039   -5.9548 H   0  0  0  0  0  0  0  0  0  0  0  0
    7.4102    8.6821   -5.5858 H   0  0  0  0  0  0  0  0  0  0  0  0
    5.9008    8.5693   -4.6949 H   0  0  0  0  0  0  0  0  0  0  0  0
    3.8644    8.8108   -6.9870 H   0  0  0  0  0  0  0  0  0  0  0  0
    3.8566    7.5802   -5.7090 H   0  0  0  0  0  0  0  0  0  0  0  0
    3.8310    7.0881   -7.4066 H   0  0  0  0  0  0  0  0  0  0  0  0
    6.3831    5.5058   -8.2986 H   0  0  0  0  0  0  0  0  0  0  0  0
    7.0557    3.9194   -8.3303 H   0  0  0  0  0  0  0  0  0  0  0  0
    7.1402    4.9731   -9.8073 H   0  0  0  0  0  0  0  0  0  0  0  0
    9.9913    5.2838   -9.6530 H   0  0  0  0  0  0  0  0  0  0  0  0
   11.7568    4.1433   -8.2162 H   0  0  0  0  0  0  0  0  0  0  0  0
   11.4804    7.0238   -7.6737 H   0  0  0  0  0  0  0  0  0  0  0  0
   12.0112    6.2768   -9.2051 H   0  0  0  0  0  0  0  0  0  0  0  0
   12.9006    5.9919   -7.7182 H   0  0  0  0  0  0  0  0  0  0  0  0
   10.7683    5.5121   -5.7619 H   0  0  0  0  0  0  0  0  0  0  0  0
   11.7590    4.0987   -5.9585 H   0  0  0  0  0  0  0  0  0  0  0  0
   10.0080    3.9593   -6.1645 H   0  0  0  0  0  0  0  0  0  0  0  0
   12.5355    2.2226   -8.7967 H   0  0  0  0  0  0  0  0  0  0  0  0
   11.5715    0.8313   -8.2798 H   0  0  0  0  0  0  0  0  0  0  0  0
   11.3361    2.3469   -7.4655 H   0  0  0  0  0  0  0  0  0  0  0  0
  1  2  1  0  0  0  0
  1 88  1  0  0  0  0
  1 89  1  0  0  0  0
  1 90  1  0  0  0  0
  2  3  1  0  0  0  0
  2 91  1  0  0  0  0
  2 92  1  0  0  0  0
  3  4  2  0  0  0  0
  3 93  1  0  0  0  0
  4  5  1  0  0  0  0
  4 94  1  0  0  0  0
  5  6  1  0  0  0  0
  5 95  1  0  0  0  0
  5 96  1  0  0  0  0
  6  7  1  0  0  0  0
  6  8  1  0  0  0  0
  6 97  1  6  0  0  0
  7 98  1  0  0  0  0
  7 99  1  0  0  0  0
  7100  1  0  0  0  0
  8  9  1  0  0  0  0
  8 10  1  0  0  0  0
  8101  1  1  0  0  0
  9102  1  0  0  0  0
 10 11  1  0  0  0  0
 10 86  1  0  0  0  0
 10103  1  1  0  0  0
 11 12  2  0  0  0  0
 11 13  1  0  0  0  0
 13 14  1  0  0  0  0
 13104  1  0  0  0  0
 14 15  1  0  0  0  0
 14 18  1  0  0  0  0
 14105  1  1  0  0  0
 15 16  1  0  0  0  0
 15106  1  0  0  0  0
 15107  1  0  0  0  0
 16 17  1  0  0  0  0
 16108  1  0  0  0  0
 16109  1  0  0  0  0
 17110  1  0  0  0  0
 17111  1  0  0  0  0
 17112  1  0  0  0  0
 18 19  2  0  0  0  0
 18 20  1  0  0  0  0
 20 21  1  0  0  0  0
 20 22  1  0  0  0  0
 21113  1  0  0  0  0
 21114  1  0  0  0  0
 21115  1  0  0  0  0
 22 23  1  0  0  0  0
 22116  1  0  0  0  0
 22117  1  0  0  0  0
 23 24  2  0  0  0  0
 23 25  1  0  0  0  0
 25 26  1  0  0  0  0
 25 27  1  0  0  0  0
 26118  1  0  0  0  0
 26119  1  0  0  0  0
 26120  1  0  0  0  0
 27 32  1  0  0  0  0
 27 28  1  0  0  0  0
 27121  1  1  0  0  0
 28 29  1  0  0  0  0
 28122  1  0  0  0  0
 28123  1  0  0  0  0
 29 30  1  0  0  0  0
 29 31  1  0  0  0  0
 29124  1  0  0  0  0
 30125  1  0  0  0  0
 30126  1  0  0  0  0
 30127  1  0  0  0  0
 31128  1  0  0  0  0
 31129  1  0  0  0  0
 31130  1  0  0  0  0
 32 33  2  0  0  0  0
 32 34  1  0  0  0  0
 34 35  1  0  0  0  0
 34131  1  0  0  0  0
 35 39  1  0  0  0  0
 35 36  1  0  0  0  0
 35132  1  6  0  0  0
 36 37  1  0  0  0  0
 36 38  1  0  0  0  0
 36133  1  0  0  0  0
 37134  1  0  0  0  0
 37135  1  0  0  0  0
 37136  1  0  0  0  0
 38137  1  0  0  0  0
 38138  1  0  0  0  0
 38139  1  0  0  0  0
 39 40  2  0  0  0  0
 39 41  1  0  0  0  0
 41 42  1  0  0  0  0
 41 43  1  0  0  0  0
 42140  1  0  0  0  0
 42141  1  0  0  0  0
 42142  1  0  0  0  0
 43 48  1  0  0  0  0
 43 44  1  0  0  0  0
 43143  1  6  0  0  0
 44 45  1  0  0  0  0
 44144  1  0  0  0  0
 44145  1  0  0  0  0
 45 46  1  0  0  0  0
 45 47  1  0  0  0  0
 45146  1  0  0  0  0
 46147  1  0  0  0  0
 46148  1  0  0  0  0
 46149  1  0  0  0  0
 47150  1  0  0  0  0
 47151  1  0  0  0  0
 47152  1  0  0  0  0
 48 49  2  0  0  0  0
 48 50  1  0  0  0  0
 50 51  1  0  0  0  0
 50153  1  0  0  0  0
 51 52  1  0  0  0  0
 51 53  1  0  0  0  0
 51154  1  6  0  0  0
 52155  1  0  0  0  0
 52156  1  0  0  0  0
 52157  1  0  0  0  0
 53 54  2  0  0  0  0
 53 55  1  0  0  0  0
 55 56  1  0  0  0  0
 55158  1  0  0  0  0
 56 58  1  0  0  0  0
 56 57  1  0  0  0  0
 56159  1  6  0  0  0
 57160  1  0  0  0  0
 57161  1  0  0  0  0
 57162  1  0  0  0  0
 58 59  2  0  0  0  0
 58 60  1  0  0  0  0
 60 61  1  0  0  0  0
 60 62  1  0  0  0  0
 61163  1  0  0  0  0
 61164  1  0  0  0  0
 61165  1  0  0  0  0
 62 63  1  0  0  0  0
 62 67  1  0  0  0  0
 62166  1  6  0  0  0
 63 64  1  0  0  0  0
 63167  1  0  0  0  0
 63168  1  0  0  0  0
 64 65  1  0  0  0  0
 64 66  1  0  0  0  0
 64169  1  0  0  0  0
 65170  1  0  0  0  0
 65171  1  0  0  0  0
 65172  1  0  0  0  0
 66173  1  0  0  0  0
 66174  1  0  0  0  0
 66175  1  0  0  0  0
 67 68  2  0  0  0  0
 67 69  1  0  0  0  0
 69 70  1  0  0  0  0
 69 71  1  0  0  0  0
 70176  1  0  0  0  0
 70177  1  0  0  0  0
 70178  1  0  0  0  0
 71 72  1  0  0  0  0
 71 76  1  0  0  0  0
 71179  1  1  0  0  0
 72 73  1  0  0  0  0
 72180  1  0  0  0  0
 72181  1  0  0  0  0
 73 74  1  0  0  0  0
 73 75  1  0  0  0  0
 73182  1  0  0  0  0
 74183  1  0  0  0  0
 74184  1  0  0  0  0
 74185  1  0  0  0  0
 75186  1  0  0  0  0
 75187  1  0  0  0  0
 75188  1  0  0  0  0
 76 77  2  0  0  0  0
 76 78  1  0  0  0  0
 78 79  1  0  0  0  0
 78 80  1  0  0  0  0
 79189  1  0  0  0  0
 79190  1  0  0  0  0
 79191  1  0  0  0  0
 80 81  1  0  0  0  0
 80 84  1  0  0  0  0
 80192  1  6  0  0  0
 81 82  1  0  0  0  0
 81 83  1  0  0  0  0
 81193  1  0  0  0  0
 82194  1  0  0  0  0
 82195  1  0  0  0  0
 82196  1  0  0  0  0
 83197  1  0  0  0  0
 83198  1  0  0  0  0
 83199  1  0  0  0  0
 84 85  2  0  0  0  0
 84 86  1  0  0  0  0
 86 87  1  0  0  0  0
 87200  1  0  0  0  0
 87201  1  0  0  0  0
 87202  1  0  0  0  0
M  END
>  <Energy>
630.792

$$$$