8
 OpenBabel03302012423D

 70 73  0  0  0  0  0  0  0  0999 V2000
    2.3812   -1.8885   -0.0742 C   0  0  0  0  0  0  0  0  0  0  0  0
    2.8965   -0.5393    0.1765 N   0  0  0  0  0  0  0  0  0  0  0  0
    3.3337   -0.2535    1.5284 C   0  0  0  0  0  0  0  0  0  0  0  0
    3.4352    0.2326   -0.9158 C   0  0  0  0  0  0  0  0  0  0  0  0
    3.1128    1.5817   -1.2032 C   0  0  0  0  0  0  0  0  0  0  0  0
    3.6586    2.2532   -2.3086 C   0  0  0  0  0  0  0  0  0  0  0  0
    4.5807    1.6256   -3.1642 C   0  0  0  0  0  0  0  0  0  0  0  0
    5.1602    2.3936   -4.3576 C   0  0  0  0  0  0  0  0  0  0  0  0
    4.6578    3.8079   -4.6189 C   0  0  0  0  0  0  0  0  0  0  0  0
    5.1314    4.9687   -4.0048 C   0  0  0  0  0  0  0  0  0  0  0  0
    4.4422    6.1420   -4.3757 C   0  0  0  0  0  0  0  0  0  0  0  0
    3.4166    5.9458   -5.3082 C   0  0  0  0  0  0  0  0  0  0  0  0
    2.4627    7.0099   -5.8040 C   0  0  0  0  0  0  0  0  0  0  0  0
    2.2166    8.1537   -4.9560 S   0  0  0  0  0  0  0  0  0  0  0  0
    1.8342    6.9567   -7.1094 N   0  0  0  0  0  0  0  0  0  0  0  0
    2.5574    6.4083   -8.2529 C   0  0  0  0  0  0  0  0  0  0  0  0
    2.7657    7.5336   -9.2852 C   0  0  0  0  0  0  0  0  0  0  0  0
    1.4177    8.1455   -9.6934 C   0  0  0  0  0  0  0  0  0  0  0  0
    0.6989    8.6881   -8.4521 C   0  0  0  0  0  0  0  0  0  0  0  0
    0.5376    7.5744   -7.4054 C   0  0  0  0  0  0  0  0  0  0  0  0
    3.4008    4.2800   -5.6669 S   0  0  0  0  0  0  0  0  0  0  0  0
    6.1414    1.8705   -5.1688 C   0  0  0  0  0  0  0  0  0  0  0  0
    6.7302    2.6649   -6.2953 C   0  0  0  0  0  0  0  0  0  0  0  0
    7.7401    2.1859   -7.0652 C   0  0  0  0  0  0  0  0  0  0  0  0
    8.3301    0.8121   -6.8416 C   0  0  0  0  0  0  0  0  0  0  0  0
    9.3166    0.2751   -7.5476 N   0  3  0  0  0  0  0  0  0  0  0  0
    9.8981   -1.0519   -7.3109 C   0  0  0  0  0  0  0  0  0  0  0  0
    9.9469    0.9632   -8.6678 C   0  0  0  0  0  0  0  0  0  0  0  0
    7.7103    0.0496   -5.7602 C   0  0  0  0  0  0  0  0  0  0  0  0
    6.7200    0.5029   -5.0050 C   0  0  0  0  0  0  0  0  0  0  0  0
    6.1743   -0.9966   -3.7073 Te  0  0  0  0  0  0  0  0  0  0  0  0
    4.9051    0.2866   -2.8135 C   0  0  0  0  0  0  0  0  0  0  0  0
    4.3450   -0.3730   -1.7355 C   0  0  0  0  0  0  0  0  0  0  0  0
   -1.5452    1.3154    0.4498 F   0  0  0  0  0  0  0  0  0  0  0  0
    0.0528    1.7386    0.8898 P   0  5  0  0  0  0  0  0  0  0  0  0
    0.0352    3.0253   -0.2479 F   0  0  0  0  0  0  0  0  0  0  0  0
    0.1038    0.4393    2.0133 F   0  0  0  0  0  0  0  0  0  0  0  0
   -0.5272    2.7923    2.1066 F   0  0  0  0  0  0  0  0  0  0  0  0
    0.6069    0.6783   -0.3384 F   0  0  0  0  0  0  0  0  0  0  0  0
    1.6408    2.1718    1.3776 F   0  0  0  0  0  0  0  0  0  0  0  0
    2.2681   -2.4708    0.8669 H   0  0  0  0  0  0  0  0  0  0  0  0
    3.0379   -2.4933   -0.7289 H   0  0  0  0  0  0  0  0  0  0  0  0
    1.3828   -1.8301   -0.5570 H   0  0  0  0  0  0  0  0  0  0  0  0
    2.5579   -0.5682    2.2603 H   0  0  0  0  0  0  0  0  0  0  0  0
    3.5748    0.8152    1.6648 H   0  0  0  0  0  0  0  0  0  0  0  0
    4.2543   -0.8417    1.7362 H   0  0  0  0  0  0  0  0  0  0  0  0
    2.4281    2.1521   -0.6379 H   0  0  0  0  0  0  0  0  0  0  0  0
    3.3456    3.2744   -2.4799 H   0  0  0  0  0  0  0  0  0  0  0  0
    5.9470    4.9809   -3.2944 H   0  0  0  0  0  0  0  0  0  0  0  0
    4.6908    7.1152   -3.9678 H   0  0  0  0  0  0  0  0  0  0  0  0
    1.9721    5.5800   -8.7000 H   0  0  0  0  0  0  0  0  0  0  0  0
    3.5543    6.0270   -7.9583 H   0  0  0  0  0  0  0  0  0  0  0  0
    3.2896    7.1395  -10.1813 H   0  0  0  0  0  0  0  0  0  0  0  0
    3.3988    8.3335   -8.8374 H   0  0  0  0  0  0  0  0  0  0  0  0
    0.7910    7.3679  -10.1823 H   0  0  0  0  0  0  0  0  0  0  0  0
    1.5779    8.9706  -10.4221 H   0  0  0  0  0  0  0  0  0  0  0  0
   -0.2945    9.0980   -8.7391 H   0  0  0  0  0  0  0  0  0  0  0  0
    1.3001    9.5139   -8.0122 H   0  0  0  0  0  0  0  0  0  0  0  0
   -0.1458    6.7925   -7.8184 H   0  0  0  0  0  0  0  0  0  0  0  0
    0.0388    7.9893   -6.5044 H   0  0  0  0  0  0  0  0  0  0  0  0
    6.3668    3.6645   -6.5137 H   0  0  0  0  0  0  0  0  0  0  0  0
    8.0768    2.8528   -7.8369 H   0  0  0  0  0  0  0  0  0  0  0  0
    9.5437   -1.6605   -6.4819 H   0  0  0  0  0  0  0  0  0  0  0  0
   10.9846   -0.9538   -7.1027 H   0  0  0  0  0  0  0  0  0  0  0  0
    9.7520   -1.6937   -8.2100 H   0  0  0  0  0  0  0  0  0  0  0  0
    9.5571    1.9595   -8.9025 H   0  0  0  0  0  0  0  0  0  0  0  0
    9.8183    0.3425   -9.5810 H   0  0  0  0  0  0  0  0  0  0  0  0
   11.0324    1.0730   -8.4570 H   0  0  0  0  0  0  0  0  0  0  0  0
    8.0163   -0.9441   -5.5400 H   0  0  0  0  0  0  0  0  0  0  0  0
    4.6456   -1.3876   -1.5118 H   0  0  0  0  0  0  0  0  0  0  0  0
  1  2  1  0  0  0  0
  1 41  1  0  0  0  0
  1 42  1  0  0  0  0
  1 43  1  0  0  0  0
  2  3  1  0  0  0  0
  2  4  1  0  0  0  0
  3 44  1  0  0  0  0
  3 45  1  0  0  0  0
  3 46  1  0  0  0  0
  4  5  1  0  0  0  0
  4 33  2  0  0  0  0
  5  6  2  0  0  0  0
  5 47  1  0  0  0  0
  6  7  1  0  0  0  0
  6 48  1  0  0  0  0
  7  8  1  0  0  0  0
  7 32  2  0  0  0  0
  8  9  1  0  0  0  0
  8 22  2  0  0  0  0
  9 10  2  0  0  0  0
  9 21  1  0  0  0  0
 10 11  1  0  0  0  0
 10 49  1  0  0  0  0
 11 12  2  0  0  0  0
 11 50  1  0  0  0  0
 12 13  1  0  0  0  0
 12 21  1  0  0  0  0
 13 14  2  0  0  0  0
 13 15  1  0  0  0  0
 15 16  1  0  0  0  0
 15 20  1  0  0  0  0
 16 17  1  0  0  0  0
 16 51  1  0  0  0  0
 16 52  1  0  0  0  0
 17 18  1  0  0  0  0
 17 53  1  0  0  0  0
 17 54  1  0  0  0  0
 18 19  1  0  0  0  0
 18 55  1  0  0  0  0
 18 56  1  0  0  0  0
 19 20  1  0  0  0  0
 19 57  1  0  0  0  0
 19 58  1  0  0  0  0
 20 59  1  0  0  0  0
 20 60  1  0  0  0  0
 22 23  1  0  0  0  0
 22 30  1  0  0  0  0
 23 24  2  0  0  0  0
 23 61  1  0  0  0  0
 24 25  1  0  0  0  0
 24 62  1  0  0  0  0
 25 26  2  0  0  0  0
 25 29  1  0  0  0  0
 26 27  1  0  0  0  0
 26 28  1  0  0  0  0
 27 63  1  0  0  0  0
 27 64  1  0  0  0  0
 27 65  1  0  0  0  0
 28 66  1  0  0  0  0
 28 67  1  0  0  0  0
 28 68  1  0  0  0  0
 29 30  2  0  0  0  0
 29 69  1  0  0  0  0
 30 31  1  0  0  0  0
 31 32  1  0  0  0  0
 32 33  1  0  0  0  0
 33 70  1  0  0  0  0
 34 35  1  0  0  0  0
 35 36  1  0  0  0  0
 35 37  1  0  0  0  0
 35 38  1  0  0  0  0
 35 39  1  0  0  0  0
 35 40  1  0  0  0  0
M  CHG  2  26   1  35  -1
M  END
$$$$