9
 OpenBabel03302012423D

 66 70  0  0  0  0  0  0  0  0999 V2000
    2.3595    1.2596   -1.9466 C   0  0  0  0  0  0  0  0  0  0  0  0
    2.3110    0.4934   -0.7006 N   0  0  0  0  0  0  0  0  0  0  0  0
    1.6302   -0.7877   -0.6949 C   0  0  0  0  0  0  0  0  0  0  0  0
    2.9469    1.0058    0.4902 C   0  0  0  0  0  0  0  0  0  0  0  0
    3.3754    2.3276    0.5130 C   0  0  0  0  0  0  0  0  0  0  0  0
    3.9994    2.8765    1.6066 C   0  0  0  0  0  0  0  0  0  0  0  0
    4.3823    2.1181    2.7355 C   0  0  0  0  0  0  0  0  0  0  0  0
    5.4269    2.5544    3.8143 C   0  0  0  0  0  0  0  0  0  0  0  0
    5.2042    2.2798    5.1816 C   0  0  0  0  0  0  0  0  0  0  0  0
    3.9303    1.9167    5.6175 C   0  0  0  0  0  0  0  0  0  0  0  0
    3.5490    1.9863    6.9438 C   0  0  0  0  0  0  0  0  0  0  0  0
    4.3818    2.4879    7.9704 C   0  0  0  0  0  0  0  0  0  0  0  0
    3.8917    2.7122    9.1776 N   0  3  0  0  0  0  0  0  0  0  0  0
    2.5259    2.3694    9.6299 C   0  0  0  0  0  0  0  0  0  0  0  0
    4.6242    3.3888   10.2628 C   0  0  0  0  0  0  0  0  0  0  0  0
    5.7686    2.7264    7.5742 C   0  0  0  0  0  0  0  0  0  0  0  0
    6.2180    2.5273    6.2189 C   0  0  0  0  0  0  0  0  0  0  0  0
    8.0264    2.3590    5.7554 Se  0  0  0  0  0  0  0  0  0  0  0  0
    7.9635    2.6283    3.9064 C   0  0  0  0  0  0  0  0  0  0  0  0
    9.1090    2.4469    2.9797 C   0  0  0  0  0  0  0  0  0  0  0  0
    8.9679    2.7879    1.5949 C   0  0  0  0  0  0  0  0  0  0  0  0
    7.8372    3.4588    1.2056 C   0  0  0  0  0  0  0  0  0  0  0  0
    6.7916    3.4974    2.0430 C   0  0  0  0  0  0  0  0  0  0  0  0
    6.7222    2.9285    3.2955 C   0  0  0  0  0  0  0  0  0  0  0  0
    7.6610    4.0294   -0.1785 C   0  0  0  0  0  0  0  0  0  0  0  0
    8.1006    2.9886   -1.1683 C   0  0  0  0  0  0  0  0  0  0  0  0
    9.5557    2.5727   -0.8819 C   0  0  0  0  0  0  0  0  0  0  0  0
    9.8972    2.4337    0.5548 N   0  0  0  0  0  0  0  0  0  0  0  0
   11.1388    1.7463    0.8396 C   0  0  0  0  0  0  0  0  0  0  0  0
   11.5256    1.7132    2.3293 C   0  0  0  0  0  0  0  0  0  0  0  0
   10.4031    1.7740    3.4091 C   0  0  0  0  0  0  0  0  0  0  0  0
    3.9070    0.7787    2.7398 C   0  0  0  0  0  0  0  0  0  0  0  0
    3.1802    0.2328    1.6536 C   0  0  0  0  0  0  0  0  0  0  0  0
   -1.5440    0.9459    1.3317 Br  0  5  0  0  0  0  0  0  0  0  0  0
    1.8524    0.7491   -2.7893 H   0  0  0  0  0  0  0  0  0  0  0  0
    3.4209    1.4171   -2.2445 H   0  0  0  0  0  0  0  0  0  0  0  0
    1.8622    2.2437   -1.8206 H   0  0  0  0  0  0  0  0  0  0  0  0
    1.1721   -1.0118   -1.6831 H   0  0  0  0  0  0  0  0  0  0  0  0
    0.8102   -0.7602    0.0513 H   0  0  0  0  0  0  0  0  0  0  0  0
    2.3413   -1.6020   -0.4557 H   0  0  0  0  0  0  0  0  0  0  0  0
    3.2462    2.9837   -0.3312 H   0  0  0  0  0  0  0  0  0  0  0  0
    4.1733    3.9145    1.4620 H   0  0  0  0  0  0  0  0  0  0  0  0
    3.1363    1.6705    4.9399 H   0  0  0  0  0  0  0  0  0  0  0  0
    2.5191    1.7219    7.0748 H   0  0  0  0  0  0  0  0  0  0  0  0
    1.8796    1.8347    8.9276 H   0  0  0  0  0  0  0  0  0  0  0  0
    1.9779    3.2894    9.9244 H   0  0  0  0  0  0  0  0  0  0  0  0
    2.5840    1.6959   10.5089 H   0  0  0  0  0  0  0  0  0  0  0  0
    5.6182    3.7777    9.9897 H   0  0  0  0  0  0  0  0  0  0  0  0
    4.7276    2.7255   11.1495 H   0  0  0  0  0  0  0  0  0  0  0  0
    4.0466    4.2877   10.5890 H   0  0  0  0  0  0  0  0  0  0  0  0
    6.5159    2.9949    8.3001 H   0  0  0  0  0  0  0  0  0  0  0  0
    6.0167    4.0394    1.6697 H   0  0  0  0  0  0  0  0  0  0  0  0
    6.5949    4.2944   -0.3886 H   0  0  0  0  0  0  0  0  0  0  0  0
    8.2679    4.9490   -0.2753 H   0  0  0  0  0  0  0  0  0  0  0  0
    8.0072    3.3808   -2.2080 H   0  0  0  0  0  0  0  0  0  0  0  0
    7.4151    2.1161   -1.0771 H   0  0  0  0  0  0  0  0  0  0  0  0
   10.2487    3.3093   -1.3270 H   0  0  0  0  0  0  0  0  0  0  0  0
    9.6867    1.6010   -1.4157 H   0  0  0  0  0  0  0  0  0  0  0  0
   11.9608    2.2711    0.2947 H   0  0  0  0  0  0  0  0  0  0  0  0
   11.0762    0.7233    0.4110 H   0  0  0  0  0  0  0  0  0  0  0  0
   12.1728    2.5984    2.4831 H   0  0  0  0  0  0  0  0  0  0  0  0
   12.1852    0.8297    2.5005 H   0  0  0  0  0  0  0  0  0  0  0  0
   10.8429    2.2984    4.2858 H   0  0  0  0  0  0  0  0  0  0  0  0
   10.1387    0.7448    3.7203 H   0  0  0  0  0  0  0  0  0  0  0  0
    4.1294    0.1060    3.5678 H   0  0  0  0  0  0  0  0  0  0  0  0
    2.8246   -0.7897    1.7180 H   0  0  0  0  0  0  0  0  0  0  0  0
  1  2  1  0  0  0  0
  1 35  1  0  0  0  0
  1 36  1  0  0  0  0
  1 37  1  0  0  0  0
  2  3  1  0  0  0  0
  2  4  1  0  0  0  0
  3 38  1  0  0  0  0
  3 39  1  0  0  0  0
  3 40  1  0  0  0  0
  4  5  1  0  0  0  0
  4 33  2  0  0  0  0
  5  6  2  0  0  0  0
  5 41  1  0  0  0  0
  6  7  1  0  0  0  0
  6 42  1  0  0  0  0
  7  8  1  0  0  0  0
  7 32  2  0  0  0  0
  8  9  2  0  0  0  0
  8 24  1  0  0  0  0
  9 10  1  0  0  0  0
  9 17  1  0  0  0  0
 10 11  2  0  0  0  0
 10 43  1  0  0  0  0
 11 12  1  0  0  0  0
 11 44  1  0  0  0  0
 12 13  2  0  0  0  0
 12 16  1  0  0  0  0
 13 14  1  0  0  0  0
 13 15  1  0  0  0  0
 14 45  1  0  0  0  0
 14 46  1  0  0  0  0
 14 47  1  0  0  0  0
 15 48  1  0  0  0  0
 15 49  1  0  0  0  0
 15 50  1  0  0  0  0
 16 17  2  0  0  0  0
 16 51  1  0  0  0  0
 17 18  1  0  0  0  0
 18 19  1  0  0  0  0
 19 20  1  0  0  0  0
 19 24  2  0  0  0  0
 20 21  2  0  0  0  0
 20 31  1  0  0  0  0
 21 22  1  0  0  0  0
 21 28  1  0  0  0  0
 22 23  2  0  0  0  0
 22 25  1  0  0  0  0
 23 24  1  0  0  0  0
 23 52  1  0  0  0  0
 25 26  1  0  0  0  0
 25 53  1  0  0  0  0
 25 54  1  0  0  0  0
 26 27  1  0  0  0  0
 26 55  1  0  0  0  0
 26 56  1  0  0  0  0
 27 28  1  0  0  0  0
 27 57  1  0  0  0  0
 27 58  1  0  0  0  0
 28 29  1  0  0  0  0
 29 30  1  0  0  0  0
 29 59  1  0  0  0  0
 29 60  1  0  0  0  0
 30 31  1  0  0  0  0
 30 61  1  0  0  0  0
 30 62  1  0  0  0  0
 31 63  1  0  0  0  0
 31 64  1  0  0  0  0
 32 33  1  0  0  0  0
 32 65  1  0  0  0  0
 33 66  1  0  0  0  0
M  CHG  2  13   1  34  -1
M  END
$$$$