10
 OpenBabel03302012423D

 64 68  0  0  0  0  0  0  0  0999 V2000
    1.0782   -0.5705    1.3197 C   0  0  0  0  0  0  0  0  0  0  0  0
    2.5451   -0.5788    1.1499 N   0  3  0  0  0  0  0  0  0  0  0  0
    3.2824    0.4557    1.8736 C   0  0  0  0  0  0  0  0  0  0  0  0
    3.1521   -1.4723    0.3882 C   0  0  0  0  0  0  0  0  0  0  0  0
    4.5414   -1.4766    0.1178 C   0  0  0  0  0  0  0  0  0  0  0  0
    5.1457   -2.4022   -0.7700 C   0  0  0  0  0  0  0  0  0  0  0  0
    4.4197   -3.4442   -1.4407 C   0  0  0  0  0  0  0  0  0  0  0  0
    5.0022   -4.4431   -2.3473 C   0  0  0  0  0  0  0  0  0  0  0  0
    6.5302   -4.4424   -2.5521 C   0  0  0  0  0  0  0  0  0  0  0  0
    7.4264   -4.2506   -1.4675 C   0  0  0  0  0  0  0  0  0  0  0  0
    8.8150   -4.2165   -1.6543 C   0  0  0  0  0  0  0  0  0  0  0  0
    9.3564   -4.4133   -2.9198 C   0  0  0  0  0  0  0  0  0  0  0  0
    8.5132   -4.6261   -4.0037 C   0  0  0  0  0  0  0  0  0  0  0  0
    7.1219   -4.6192   -3.8298 C   0  0  0  0  0  0  0  0  0  0  0  0
    4.1607   -5.4226   -3.0732 C   0  0  0  0  0  0  0  0  0  0  0  0
    4.7144   -6.4506   -3.9210 C   0  0  0  0  0  0  0  0  0  0  0  0
    3.9251   -7.3689   -4.6584 C   0  0  0  0  0  0  0  0  0  0  0  0
    2.5335   -7.3015   -4.5700 C   0  0  0  0  0  0  0  0  0  0  0  0
    1.9350   -6.3357   -3.7561 C   0  0  0  0  0  0  0  0  0  0  0  0
    2.7303   -5.4390   -2.9882 C   0  0  0  0  0  0  0  0  0  0  0  0
    1.7362   -4.3758   -1.9237 Se  0  0  0  0  0  0  0  0  0  0  0  0
    2.9699   -3.3840   -1.1581 C   0  0  0  0  0  0  0  0  0  0  0  0
    2.4037   -2.4560   -0.2865 C   0  0  0  0  0  0  0  0  0  0  0  0
    0.4018   -6.2479   -3.7270 C   0  0  0  0  0  0  0  0  0  0  0  0
   -0.3073   -7.0713   -4.8002 C   0  0  0  0  0  0  0  0  0  0  0  0
    0.3378   -8.4343   -4.8713 C   0  0  0  0  0  0  0  0  0  0  0  0
    1.7142   -8.2231   -5.2959 N   0  0  0  0  0  0  0  0  0  0  0  0
    2.2426   -8.8561   -6.4886 C   0  0  0  0  0  0  0  0  0  0  0  0
    3.5995   -9.4604   -6.1638 C   0  0  0  0  0  0  0  0  0  0  0  0
    4.5758   -8.4042   -5.5785 C   0  0  0  0  0  0  0  0  0  0  0  0
    1.1950    1.9830   -2.9111 F   0  0  0  0  0  0  0  0  0  0  0  0
    2.5651    1.4592   -2.0221 P   0  5  0  0  0  0  0  0  0  0  0  0
    1.8420    2.0362   -0.5719 F   0  0  0  0  0  0  0  0  0  0  0  0
    1.8156   -0.0637   -1.7986 F   0  0  0  0  0  0  0  0  0  0  0  0
    3.2916    0.8732   -3.4610 F   0  0  0  0  0  0  0  0  0  0  0  0
    3.3128    2.9873   -2.2526 F   0  0  0  0  0  0  0  0  0  0  0  0
    3.9426    0.9463   -1.1507 F   0  0  0  0  0  0  0  0  0  0  0  0
    0.7147    0.2585    1.9598 H   0  0  0  0  0  0  0  0  0  0  0  0
    0.7337   -1.5193    1.7905 H   0  0  0  0  0  0  0  0  0  0  0  0
    0.5761   -0.4372    0.3405 H   0  0  0  0  0  0  0  0  0  0  0  0
    2.6096    1.1400    2.4348 H   0  0  0  0  0  0  0  0  0  0  0  0
    3.8605    1.0950    1.1874 H   0  0  0  0  0  0  0  0  0  0  0  0
    3.9633   -0.0125    2.6176 H   0  0  0  0  0  0  0  0  0  0  0  0
    5.1825   -0.7333    0.5737 H   0  0  0  0  0  0  0  0  0  0  0  0
    6.1962   -2.2392   -0.9122 H   0  0  0  0  0  0  0  0  0  0  0  0
    7.0681   -4.1277   -0.4561 H   0  0  0  0  0  0  0  0  0  0  0  0
    9.4722   -4.0436   -0.8119 H   0  0  0  0  0  0  0  0  0  0  0  0
   10.4331   -4.4011   -3.0606 H   0  0  0  0  0  0  0  0  0  0  0  0
    8.9387   -4.7840   -4.9864 H   0  0  0  0  0  0  0  0  0  0  0  0
    6.5214   -4.7441   -4.7194 H   0  0  0  0  0  0  0  0  0  0  0  0
    5.7700   -6.6034   -4.0290 H   0  0  0  0  0  0  0  0  0  0  0  0
    1.3297   -2.4982   -0.1639 H   0  0  0  0  0  0  0  0  0  0  0  0
    0.0733   -5.2004   -3.9093 H   0  0  0  0  0  0  0  0  0  0  0  0
    0.0661   -6.5655   -2.7169 H   0  0  0  0  0  0  0  0  0  0  0  0
   -0.1811   -6.5863   -5.7950 H   0  0  0  0  0  0  0  0  0  0  0  0
   -1.3919   -7.1165   -4.5664 H   0  0  0  0  0  0  0  0  0  0  0  0
   -0.2190   -9.0821   -5.5798 H   0  0  0  0  0  0  0  0  0  0  0  0
    0.3086   -8.9098   -3.8641 H   0  0  0  0  0  0  0  0  0  0  0  0
    1.5471   -9.6368   -6.8737 H   0  0  0  0  0  0  0  0  0  0  0  0
    2.3612   -8.0834   -7.2765 H   0  0  0  0  0  0  0  0  0  0  0  0
    4.0434   -9.9270   -7.0736 H   0  0  0  0  0  0  0  0  0  0  0  0
    3.4265  -10.2622   -5.4165 H   0  0  0  0  0  0  0  0  0  0  0  0
    5.0425   -7.8332   -6.4090 H   0  0  0  0  0  0  0  0  0  0  0  0
    5.3789   -8.9677   -5.0561 H   0  0  0  0  0  0  0  0  0  0  0  0
  1  2  1  0  0  0  0
  1 38  1  0  0  0  0
  1 39  1  0  0  0  0
  1 40  1  0  0  0  0
  2  3  1  0  0  0  0
  2  4  2  0  0  0  0
  3 41  1  0  0  0  0
  3 42  1  0  0  0  0
  3 43  1  0  0  0  0
  4  5  1  0  0  0  0
  4 23  1  0  0  0  0
  5  6  2  0  0  0  0
  5 44  1  0  0  0  0
  6  7  1  0  0  0  0
  6 45  1  0  0  0  0
  7  8  2  0  0  0  0
  7 22  1  0  0  0  0
  8  9  1  0  0  0  0
  8 15  1  0  0  0  0
  9 10  1  0  0  0  0
  9 14  2  0  0  0  0
 10 11  2  0  0  0  0
 10 46  1  0  0  0  0
 11 12  1  0  0  0  0
 11 47  1  0  0  0  0
 12 13  2  0  0  0  0
 12 48  1  0  0  0  0
 13 14  1  0  0  0  0
 13 49  1  0  0  0  0
 14 50  1  0  0  0  0
 15 16  1  0  0  0  0
 15 20  2  0  0  0  0
 16 17  2  0  0  0  0
 16 51  1  0  0  0  0
 17 18  1  0  0  0  0
 17 30  1  0  0  0  0
 18 19  2  0  0  0  0
 18 27  1  0  0  0  0
 19 20  1  0  0  0  0
 19 24  1  0  0  0  0
 20 21  1  0  0  0  0
 21 22  1  0  0  0  0
 22 23  2  0  0  0  0
 23 52  1  0  0  0  0
 24 25  1  0  0  0  0
 24 53  1  0  0  0  0
 24 54  1  0  0  0  0
 25 26  1  0  0  0  0
 25 55  1  0  0  0  0
 25 56  1  0  0  0  0
 26 27  1  0  0  0  0
 26 57  1  0  0  0  0
 26 58  1  0  0  0  0
 27 28  1  0  0  0  0
 28 29  1  0  0  0  0
 28 59  1  0  0  0  0
 28 60  1  0  0  0  0
 29 30  1  0  0  0  0
 29 61  1  0  0  0  0
 29 62  1  0  0  0  0
 30 63  1  0  0  0  0
 30 64  1  0  0  0  0
 31 32  1  0  0  0  0
 32 33  1  0  0  0  0
 32 34  1  0  0  0  0
 32 35  1  0  0  0  0
 32 36  1  0  0  0  0
 32 37  1  0  0  0  0
M  CHG  2   2   1  32  -1
M  END
$$$$