11534126
  -OEChem-03242010103D

 80 88  0     1  0  0  0  0  0999 V2000
    0.1315    3.4524    2.3330 O   0  0  0  0  0  0  0  0  0  0  0  0
   -0.0940   -3.2702   -1.4778 O   0  0  0  0  0  0  0  0  0  0  0  0
    1.7066   -0.6658    0.5660 N   0  0  0  0  0  0  0  0  0  0  0  0
   -1.6995    0.8387    0.3009 N   0  0  0  0  0  0  0  0  0  0  0  0
    0.5099    1.2919    1.3942 C   0  0  0  0  0  0  0  0  0  0  0  0
   -0.4976   -1.1189   -0.5283 C   0  0  0  0  0  0  0  0  0  0  0  0
   -0.4781   -0.6543    1.7942 C   0  0  0  0  0  0  0  0  0  0  0  0
    0.4802    0.8268   -0.9282 C   0  0  0  0  0  0  0  0  0  0  0  0
    0.9909   -0.1557    1.7338 C   0  0  1  0  0  0  0  0  0  0  0  0
   -0.9581    0.8144    1.5603 C   0  0  2  0  0  0  0  0  0  0  0  0
    0.9689   -0.6363   -0.6941 C   0  0  1  0  0  0  0  0  0  0  0  0
   -0.9875    0.3234   -0.8655 C   0  0  2  0  0  0  0  0  0  0  0  0
    0.9167    1.9219    0.0564 C   0  0  2  0  0  0  0  0  0  0  0  0
   -0.9095   -1.7490    0.8107 C   0  0  1  0  0  0  0  0  0  0  0  0
    0.8395    2.2432    2.5425 C   0  0  0  0  0  0  0  0  0  0  0  0
   -0.8232   -2.0719   -1.6766 C   0  0  0  0  0  0  0  0  0  0  0  0
    2.3910    2.2724   -0.0840 C   0  0  0  0  0  0  0  0  0  0  0  0
   -2.3850   -2.1203    0.8463 C   0  0  0  0  0  0  0  0  0  0  0  0
    2.3928   -1.9227    0.8080 C   0  0  0  0  0  0  0  0  0  0  0  0
   -2.3854    2.0948    0.0545 C   0  0  0  0  0  0  0  0  0  0  0  0
    3.3455    1.5872    0.6680 C   0  0  0  0  0  0  0  0  0  0  0  0
   -2.7858   -3.4173    0.5249 C   0  0  0  0  0  0  0  0  0  0  0  0
    2.7881    3.2783   -0.9650 C   0  0  0  0  0  0  0  0  0  0  0  0
   -3.3367   -1.1640    1.2008 C   0  0  0  0  0  0  0  0  0  0  0  0
    3.6900   -2.0088    0.0487 C   0  0  0  0  0  0  0  0  0  0  0  0
   -3.6981    1.8878   -0.6531 C   0  0  0  0  0  0  0  0  0  0  0  0
    4.6968    1.9082    0.5393 C   0  0  0  0  0  0  0  0  0  0  0  0
   -4.1380   -3.7578    0.5577 C   0  0  0  0  0  0  0  0  0  0  0  0
    4.1395    3.5992   -1.0937 C   0  0  0  0  0  0  0  0  0  0  0  0
   -4.6889   -1.5047    1.2337 C   0  0  0  0  0  0  0  0  0  0  0  0
    3.7103   -2.5453   -1.2388 C   0  0  0  0  0  0  0  0  0  0  0  0
   -3.7466    1.8878   -2.0472 C   0  0  0  0  0  0  0  0  0  0  0  0
    4.8716   -1.5518    0.6325 C   0  0  0  0  0  0  0  0  0  0  0  0
   -4.8659    1.6956    0.0854 C   0  0  0  0  0  0  0  0  0  0  0  0
    5.0938    2.9140   -0.3416 C   0  0  0  0  0  0  0  0  0  0  0  0
   -5.0895   -2.8016    0.9122 C   0  0  0  0  0  0  0  0  0  0  0  0
    4.9121   -2.6250   -1.9424 C   0  0  0  0  0  0  0  0  0  0  0  0
   -4.9627    1.6958   -2.7028 C   0  0  0  0  0  0  0  0  0  0  0  0
    6.0734   -1.6313   -0.0713 C   0  0  0  0  0  0  0  0  0  0  0  0
   -6.0819    1.5036   -0.5704 C   0  0  0  0  0  0  0  0  0  0  0  0
    6.0935   -2.1680   -1.3588 C   0  0  0  0  0  0  0  0  0  0  0  0
   -6.1303    1.5036   -1.9645 C   0  0  0  0  0  0  0  0  0  0  0  0
   -0.7166   -0.9844    2.8178 H   0  0  0  0  0  0  0  0  0  0  0  0
    0.7123    1.1566   -1.9533 H   0  0  0  0  0  0  0  0  0  0  0  0
    1.5260   -0.2493    2.6869 H   0  0  0  0  0  0  0  0  0  0  0  0
   -1.5032    1.2161    2.4236 H   0  0  0  0  0  0  0  0  0  0  0  0
    1.5104   -1.0077   -1.5687 H   0  0  0  0  0  0  0  0  0  0  0  0
   -1.5173    0.3903   -1.8193 H   0  0  0  0  0  0  0  0  0  0  0  0
    0.3460    2.8391   -0.1255 H   0  0  0  0  0  0  0  0  0  0  0  0
   -0.3380   -2.6573    1.0312 H   0  0  0  0  0  0  0  0  0  0  0  0
    0.5223    1.8327    3.5089 H   0  0  0  0  0  0  0  0  0  0  0  0
    1.9018    2.4782    2.6345 H   0  0  0  0  0  0  0  0  0  0  0  0
   -1.8902   -2.2942   -1.7650 H   0  0  0  0  0  0  0  0  0  0  0  0
   -0.5131   -1.6542   -2.6425 H   0  0  0  0  0  0  0  0  0  0  0  0
    2.6312   -2.0408    1.8741 H   0  0  0  0  0  0  0  0  0  0  0  0
    1.7735   -2.7944    0.5673 H   0  0  0  0  0  0  0  0  0  0  0  0
   -2.6005    2.6165    0.9973 H   0  0  0  0  0  0  0  0  0  0  0  0
   -1.7734    2.8011   -0.5189 H   0  0  0  0  0  0  0  0  0  0  0  0
    0.3382    4.0396    3.0799 H   0  0  0  0  0  0  0  0  0  0  0  0
   -0.3051   -3.8611   -2.2204 H   0  0  0  0  0  0  0  0  0  0  0  0
    3.1398    0.8893    1.4614 H   0  0  0  0  0  0  0  0  0  0  0  0
   -2.0570   -4.1769    0.2566 H   0  0  0  0  0  0  0  0  0  0  0  0
    2.0541    3.8178   -1.5575 H   0  0  0  0  0  0  0  0  0  0  0  0
   -3.1267   -0.2085    1.6465 H   0  0  0  0  0  0  0  0  0  0  0  0
    5.4401    1.4063    1.1515 H   0  0  0  0  0  0  0  0  0  0  0  0
   -4.4496   -4.7689    0.3127 H   0  0  0  0  0  0  0  0  0  0  0  0
    4.4486    4.3835   -1.7783 H   0  0  0  0  0  0  0  0  0  0  0  0
   -5.4301   -0.7853    1.5679 H   0  0  0  0  0  0  0  0  0  0  0  0
    2.8035   -2.9222   -1.7029 H   0  0  0  0  0  0  0  0  0  0  0  0
   -2.8508    2.0551   -2.6387 H   0  0  0  0  0  0  0  0  0  0  0  0
    4.8718   -1.1408    1.6385 H   0  0  0  0  0  0  0  0  0  0  0  0
   -4.8447    1.7071    1.1718 H   0  0  0  0  0  0  0  0  0  0  0  0
    6.1451    3.1701   -0.4352 H   0  0  0  0  0  0  0  0  0  0  0  0
   -6.1409   -3.0707    0.9522 H   0  0  0  0  0  0  0  0  0  0  0  0
    4.9285   -3.0464   -2.9432 H   0  0  0  0  0  0  0  0  0  0  0  0
   -5.0012    1.7003   -3.7882 H   0  0  0  0  0  0  0  0  0  0  0  0
    6.9936   -1.2769    0.3839 H   0  0  0  0  0  0  0  0  0  0  0  0
   -6.9916    1.3566    0.0045 H   0  0  0  0  0  0  0  0  0  0  0  0
    7.0295   -2.2310   -1.9061 H   0  0  0  0  0  0  0  0  0  0  0  0
   -7.0774    1.3553   -2.4749 H   0  0  0  0  0  0  0  0  0  0  0  0
  1 15  1  0  0  0  0
  1 59  1  0  0  0  0
  2 16  1  0  0  0  0
  2 60  1  0  0  0  0
  3  9  1  0  0  0  0
  3 11  1  0  0  0  0
  3 19  1  0  0  0  0
  4 10  1  0  0  0  0
  4 12  1  0  0  0  0
  4 20  1  0  0  0  0
  5  9  1  0  0  0  0
  5 10  1  0  0  0  0
  5 13  1  0  0  0  0
  5 15  1  0  0  0  0
  6 11  1  0  0  0  0
  6 12  1  0  0  0  0
  6 14  1  0  0  0  0
  6 16  1  0  0  0  0
  7  9  1  0  0  0  0
  7 10  1  0  0  0  0
  7 14  1  0  0  0  0
  7 43  1  0  0  0  0
  8 11  1  0  0  0  0
  8 12  1  0  0  0  0
  8 13  1  0  0  0  0
  8 44  1  0  0  0  0
  9 45  1  0  0  0  0
 10 46  1  0  0  0  0
 11 47  1  0  0  0  0
 12 48  1  0  0  0  0
 13 17  1  0  0  0  0
 13 49  1  0  0  0  0
 14 18  1  0  0  0  0
 14 50  1  0  0  0  0
 15 51  1  0  0  0  0
 15 52  1  0  0  0  0
 16 53  1  0  0  0  0
 16 54  1  0  0  0  0
 17 21  2  0  0  0  0
 17 23  1  0  0  0  0
 18 22  2  0  0  0  0
 18 24  1  0  0  0  0
 19 25  1  0  0  0  0
 19 55  1  0  0  0  0
 19 56  1  0  0  0  0
 20 26  1  0  0  0  0
 20 57  1  0  0  0  0
 20 58  1  0  0  0  0
 21 27  1  0  0  0  0
 21 61  1  0  0  0  0
 22 28  1  0  0  0  0
 22 62  1  0  0  0  0
 23 29  2  0  0  0  0
 23 63  1  0  0  0  0
 24 30  2  0  0  0  0
 24 64  1  0  0  0  0
 25 31  2  0  0  0  0
 25 33  1  0  0  0  0
 26 32  2  0  0  0  0
 26 34  1  0  0  0  0
 27 35  2  0  0  0  0
 27 65  1  0  0  0  0
 28 36  2  0  0  0  0
 28 66  1  0  0  0  0
 29 35  1  0  0  0  0
 29 67  1  0  0  0  0
 30 36  1  0  0  0  0
 30 68  1  0  0  0  0
 31 37  1  0  0  0  0
 31 69  1  0  0  0  0
 32 38  1  0  0  0  0
 32 70  1  0  0  0  0
 33 39  2  0  0  0  0
 33 71  1  0  0  0  0
 34 40  2  0  0  0  0
 34 72  1  0  0  0  0
 35 73  1  0  0  0  0
 36 74  1  0  0  0  0
 37 41  2  0  0  0  0
 37 75  1  0  0  0  0
 38 42  2  0  0  0  0
 38 76  1  0  0  0  0
 39 41  1  0  0  0  0
 39 77  1  0  0  0  0
 40 42  1  0  0  0  0
 40 78  1  0  0  0  0
 41 79  1  0  0  0  0
 42 80  1  0  0  0  0
M  END
> <PUBCHEM_COMPOUND_CID>
11534126

> <PUBCHEM_CONFORMER_RMSD>
1

> <PUBCHEM_CONFORMER_DIVERSEORDER>
1
6
4
5
2
3

> <PUBCHEM_MMFF94_PARTIAL_CHARGES>
60
1 -0.68
10 0.21
11 0.21
12 0.21
13 0.14
14 0.14
15 0.28
16 0.28
17 -0.14
18 -0.14
19 0.41
2 -0.68
20 0.41
21 -0.15
22 -0.15
23 -0.15
24 -0.15
25 -0.14
26 -0.14
27 -0.15
28 -0.15
29 -0.15
3 -0.69
30 -0.15
31 -0.15
32 -0.15
33 -0.15
34 -0.15
35 -0.15
36 -0.15
37 -0.15
38 -0.15
39 -0.15
4 -0.69
40 -0.15
41 -0.15
42 -0.15
59 0.4
60 0.4
61 0.15
62 0.15
63 0.15
64 0.15
65 0.15
66 0.15
67 0.15
68 0.15
69 0.15
70 0.15
71 0.15
72 0.15
73 0.15
74 0.15
75 0.15
76 0.15
77 0.15
78 0.15
79 0.15
80 0.15
9 0.21

> <PUBCHEM_EFFECTIVE_ROTOR_COUNT>
8.8

> <PUBCHEM_PHARMACOPHORE_FEATURES>
16
1 1 acceptor
1 1 donor
1 2 acceptor
1 2 donor
1 3 cation
1 4 cation
4 5 7 9 10 rings
4 6 8 11 12 rings
6 17 21 23 27 29 35 rings
6 18 22 24 28 30 36 rings
6 25 31 33 37 39 41 rings
6 26 32 34 38 40 42 rings
6 3 5 8 9 11 13 rings
6 3 6 7 9 11 14 rings
6 4 5 8 10 12 13 rings
6 4 6 7 10 12 14 rings

> <PUBCHEM_HEAVY_ATOM_COUNT>
42

> <PUBCHEM_ATOM_DEF_STEREO_COUNT>
2

> <PUBCHEM_ATOM_UDEF_STEREO_COUNT>
4

> <PUBCHEM_BOND_DEF_STEREO_COUNT>
0

> <PUBCHEM_BOND_UDEF_STEREO_COUNT>
0

> <PUBCHEM_ISOTOPIC_ATOM_COUNT>
0

> <PUBCHEM_COMPONENT_COUNT>
1

> <PUBCHEM_CACTVS_TAUTO_COUNT>
1

> <PUBCHEM_CONFORMER_ID>
00AFFF2E00000001

> <PUBCHEM_MMFF94_ENERGY>
191.4393

> <PUBCHEM_FEATURE_SELFOVERLAP>
94.64

> <PUBCHEM_SHAPE_FINGERPRINT>
10050765 1 18334859458389239184
10190108 129 17261607681574313267
10258939 38 17899697044161079706
10290309 65 18054508286227753520
10930396 42 17979600522143720218
11115154 58 17344046491599000721
11421498 54 17682393994638851459
11578080 2 18333734649520362061
12058002 1 17700151910100709725
12608794 3 17980222810605783625
12633046 712 17989211477271178139
131258 43 17702687466763646700
13811026 1 18335133206740915859
140371 6 18055931904276043862
14040221 97 18265053729154800860
14747281 78 17319279923542965973
15082195 135 18194943344618955853
16090146 7 17704076166154132638
18365409 1 17268636391296199928
20775438 99 18267561598764872118
21033648 144 18334572421815515853
23559900 14 18411697664834495712
244849 19 18058150877781085697
3493558 16 18187932827851216301
460360 51 18412825819488626422
57527452 28 15913033267288007775
6086070 43 18261387807021229514
6669772 16 18260540113256832168

> <PUBCHEM_SHAPE_MULTIPOLES>
842.64
12.89
4.92
2.1
0.19
0.39
-0.13
0.8
-5.3
-1.13
-0.53
0.91
-0.58
3.39

> <PUBCHEM_SHAPE_SELFOVERLAP>
1919.227

> <PUBCHEM_SHAPE_VOLUME>
430.7

> <PUBCHEM_COORDINATE_TYPE>
2
5
10

$$$$