44451590
  -OEChem-03242010103D

 61 64  0     1  0  0  0  0  0999 V2000
    8.9579    2.4106   -0.0032 O   0  0  0  0  0  0  0  0  0  0  0  0
    9.9732   -0.1626    0.2504 O   0  0  0  0  0  0  0  0  0  0  0  0
   -4.8954   -1.4911    1.3980 O   0  0  0  0  0  0  0  0  0  0  0  0
  -11.2411    1.1731    1.0250 O   0  5  0  0  0  0  0  0  0  0  0  0
  -10.9307    1.5118   -1.1216 O   0  0  0  0  0  0  0  0  0  0  0  0
    3.5858   -0.5113   -0.2298 N   0  0  2  0  0  0  0  0  0  0  0  0
   -4.2493   -0.1993   -0.4575 N   0  0  0  0  0  0  0  0  0  0  0  0
  -10.5132    1.1446    0.0032 N   0  3  0  0  0  0  0  0  0  0  0  0
    3.9956   -1.6268    0.6320 C   0  0  0  0  0  0  0  0  0  0  0  0
    4.3661    0.6961    0.0945 C   0  0  0  0  0  0  0  0  0  0  0  0
    5.4417   -2.0236    0.3177 C   0  0  0  0  0  0  0  0  0  0  0  0
    5.8588    0.4582    0.1065 C   0  0  0  0  0  0  0  0  0  0  0  0
    6.3733   -0.8409    0.2588 C   0  0  0  0  0  0  0  0  0  0  0  0
    2.1547   -0.2453   -0.0888 C   0  0  0  0  0  0  0  0  0  0  0  0
    1.3294   -1.2411   -0.9043 C   0  0  0  0  0  0  0  0  0  0  0  0
    6.7403    1.5451    0.0307 C   0  0  0  0  0  0  0  0  0  0  0  0
    7.7599   -1.0376    0.2955 C   0  0  0  0  0  0  0  0  0  0  0  0
    8.1191    1.3402    0.0779 C   0  0  0  0  0  0  0  0  0  0  0  0
    8.6283    0.0500    0.2079 C   0  0  0  0  0  0  0  0  0  0  0  0
   -0.1481   -0.9643   -0.7852 C   0  0  0  0  0  0  0  0  0  0  0  0
   -0.8921   -1.5712    0.2267 C   0  0  0  0  0  0  0  0  0  0  0  0
   -0.7712   -0.1023   -1.6876 C   0  0  0  0  0  0  0  0  0  0  0  0
   -2.2590   -1.3163    0.3360 C   0  0  0  0  0  0  0  0  0  0  0  0
   -2.1381    0.1526   -1.5785 C   0  0  0  0  0  0  0  0  0  0  0  0
   -2.8820   -0.4544   -0.5667 C   0  0  0  0  0  0  0  0  0  0  0  0
    9.3300    3.0364    1.2233 C   0  0  0  0  0  0  0  0  0  0  0  0
   10.6339   -0.3828   -0.9944 C   0  0  0  0  0  0  0  0  0  0  0  0
   -5.1502   -0.7128    0.4850 C   0  0  0  0  0  0  0  0  0  0  0  0
   -6.5497   -0.2278    0.3590 C   0  0  0  0  0  0  0  0  0  0  0  0
   -7.3766   -0.1858    1.4817 C   0  0  0  0  0  0  0  0  0  0  0  0
   -7.0360    0.1858   -0.8812 C   0  0  0  0  0  0  0  0  0  0  0  0
   -8.6897    0.2693    1.3640 C   0  0  0  0  0  0  0  0  0  0  0  0
   -8.3493    0.6409   -0.9989 C   0  0  0  0  0  0  0  0  0  0  0  0
   -9.1761    0.6826    0.1237 C   0  0  0  0  0  0  0  0  0  0  0  0
    3.3725   -2.5139    0.4778 H   0  0  0  0  0  0  0  0  0  0  0  0
    3.9039   -1.3523    1.6921 H   0  0  0  0  0  0  0  0  0  0  0  0
    4.0792    1.0910    1.0785 H   0  0  0  0  0  0  0  0  0  0  0  0
    4.1473    1.4644   -0.6578 H   0  0  0  0  0  0  0  0  0  0  0  0
    5.4781   -2.5345   -0.6529 H   0  0  0  0  0  0  0  0  0  0  0  0
    5.7876   -2.7304    1.0814 H   0  0  0  0  0  0  0  0  0  0  0  0
    1.8481   -0.2428    0.9660 H   0  0  0  0  0  0  0  0  0  0  0  0
    1.9269    0.7589   -0.4728 H   0  0  0  0  0  0  0  0  0  0  0  0
    1.5135   -2.2749   -0.5893 H   0  0  0  0  0  0  0  0  0  0  0  0
    1.6222   -1.1984   -1.9620 H   0  0  0  0  0  0  0  0  0  0  0  0
    6.3486    2.5552   -0.0660 H   0  0  0  0  0  0  0  0  0  0  0  0
    8.1626   -2.0431    0.3933 H   0  0  0  0  0  0  0  0  0  0  0  0
   -0.4161   -2.2429    0.9363 H   0  0  0  0  0  0  0  0  0  0  0  0
   -0.2017    0.3777   -2.4792 H   0  0  0  0  0  0  0  0  0  0  0  0
   -2.7649   -1.8233    1.1454 H   0  0  0  0  0  0  0  0  0  0  0  0
   -2.6101    0.8266   -2.2889 H   0  0  0  0  0  0  0  0  0  0  0  0
    8.4472    3.4338    1.7342 H   0  0  0  0  0  0  0  0  0  0  0  0
   10.0043    3.8660    0.9938 H   0  0  0  0  0  0  0  0  0  0  0  0
    9.8542    2.3290    1.8735 H   0  0  0  0  0  0  0  0  0  0  0  0
   10.5164    0.4844   -1.6518 H   0  0  0  0  0  0  0  0  0  0  0  0
   11.6992   -0.5291   -0.7956 H   0  0  0  0  0  0  0  0  0  0  0  0
   10.2423   -1.2808   -1.4826 H   0  0  0  0  0  0  0  0  0  0  0  0
   -4.5947    0.4762   -1.1332 H   0  0  0  0  0  0  0  0  0  0  0  0
   -7.0155   -0.4984    2.4580 H   0  0  0  0  0  0  0  0  0  0  0  0
   -6.4422    0.1349   -1.7887 H   0  0  0  0  0  0  0  0  0  0  0  0
   -9.3050    0.2892    2.2600 H   0  0  0  0  0  0  0  0  0  0  0  0
   -8.6972    0.9469   -1.9823 H   0  0  0  0  0  0  0  0  0  0  0  0
  1 18  1  0  0  0  0
  1 26  1  0  0  0  0
  2 19  1  0  0  0  0
  2 27  1  0  0  0  0
  3 28  2  0  0  0  0
  4  8  1  0  0  0  0
  5  8  2  0  0  0  0
  6  9  1  0  0  0  0
  6 10  1  0  0  0  0
  6 14  1  0  0  0  0
  7 25  1  0  0  0  0
  7 28  1  0  0  0  0
  7 57  1  0  0  0  0
  8 34  1  0  0  0  0
  9 11  1  0  0  0  0
  9 35  1  0  0  0  0
  9 36  1  0  0  0  0
 10 12  1  0  0  0  0
 10 37  1  0  0  0  0
 10 38  1  0  0  0  0
 11 13  1  0  0  0  0
 11 39  1  0  0  0  0
 11 40  1  0  0  0  0
 12 13  1  0  0  0  0
 12 16  2  0  0  0  0
 13 17  2  0  0  0  0
 14 15  1  0  0  0  0
 14 41  1  0  0  0  0
 14 42  1  0  0  0  0
 15 20  1  0  0  0  0
 15 43  1  0  0  0  0
 15 44  1  0  0  0  0
 16 18  1  0  0  0  0
 16 45  1  0  0  0  0
 17 19  1  0  0  0  0
 17 46  1  0  0  0  0
 18 19  2  0  0  0  0
 20 21  2  0  0  0  0
 20 22  1  0  0  0  0
 21 23  1  0  0  0  0
 21 47  1  0  0  0  0
 22 24  2  0  0  0  0
 22 48  1  0  0  0  0
 23 25  2  0  0  0  0
 23 49  1  0  0  0  0
 24 25  1  0  0  0  0
 24 50  1  0  0  0  0
 26 51  1  0  0  0  0
 26 52  1  0  0  0  0
 26 53  1  0  0  0  0
 27 54  1  0  0  0  0
 27 55  1  0  0  0  0
 27 56  1  0  0  0  0
 28 29  1  0  0  0  0
 29 30  2  0  0  0  0
 29 31  1  0  0  0  0
 30 32  1  0  0  0  0
 30 58  1  0  0  0  0
 31 33  2  0  0  0  0
 31 59  1  0  0  0  0
 32 34  2  0  0  0  0
 32 60  1  0  0  0  0
 33 34  1  0  0  0  0
 33 61  1  0  0  0  0
M  CHG  2   4  -1   8   1
M  END
> <PUBCHEM_COMPOUND_CID>
44451590

> <PUBCHEM_CONFORMER_RMSD>
1

> <PUBCHEM_CONFORMER_DIVERSEORDER>
1
40
52
23
3
16
51
36
5
41
50
42
43
38
37
32
4
44
24
17
10
48
31
8
29
2
34
14
7
9
33
21
47
27
12
28
49
25
35
39
6
19
30
46
11
45
13
18
26
22
20
15

> <PUBCHEM_MMFF94_PARTIAL_CHARGES>
45
1 -0.36
10 0.41
11 0.14
12 -0.14
13 -0.14
14 0.27
15 0.14
16 -0.15
17 -0.15
18 0.08
19 0.08
2 -0.36
20 -0.14
21 -0.15
22 -0.15
23 -0.15
24 -0.15
25 0.12
26 0.28
27 0.28
28 0.54
29 0.09
3 -0.57
30 -0.15
31 -0.15
32 -0.15
33 -0.15
34 0.13
4 -0.52
45 0.15
46 0.15
47 0.15
48 0.15
49 0.15
5 -0.52
50 0.15
57 0.37
58 0.15
59 0.15
6 -0.81
60 0.15
61 0.15
7 -0.55
8 0.91
9 0.27

> <PUBCHEM_EFFECTIVE_ROTOR_COUNT>
9.8

> <PUBCHEM_PHARMACOPHORE_FEATURES>
12
1 1 acceptor
1 2 acceptor
1 3 acceptor
1 4 acceptor
1 4 anion
1 5 acceptor
1 6 cation
1 7 donor
6 12 13 16 17 18 19 rings
6 20 21 22 23 24 25 rings
6 29 30 31 32 33 34 rings
6 6 9 10 11 12 13 rings

> <PUBCHEM_HEAVY_ATOM_COUNT>
34

> <PUBCHEM_ATOM_DEF_STEREO_COUNT>
0

> <PUBCHEM_ATOM_UDEF_STEREO_COUNT>
0

> <PUBCHEM_BOND_DEF_STEREO_COUNT>
0

> <PUBCHEM_BOND_UDEF_STEREO_COUNT>
0

> <PUBCHEM_ISOTOPIC_ATOM_COUNT>
0

> <PUBCHEM_COMPONENT_COUNT>
1

> <PUBCHEM_CACTVS_TAUTO_COUNT>
2

> <PUBCHEM_CONFORMER_ID>
02A6470600000001

> <PUBCHEM_MMFF94_ENERGY>
123.1034

> <PUBCHEM_FEATURE_SELFOVERLAP>
61.006

> <PUBCHEM_SHAPE_FINGERPRINT>
10 15 18187363229124461279
10076449 9 8430598310700690959
10533779 47 17603869961816144147
10625338 86 18335133177061734565
10674148 151 15574717993693015681
11061554 47 18187080608467909469
11135609 127 15123499364415051674
11135926 11 16009022909011077115
11181472 205 17560530508010811586
11211813 74 18059852909745800648
11408170 108 11602810277111821673
11409948 35 18340207372528767366
11607047 141 18041550353517355682
12013929 2 18409168788154258378
12089408 11 18131627902465218070
12498461 61 15285652015138591937
12522641 33 17917430908339843839
12539745 222 12612743611148390735
12664476 115 17988921167441699120
13553643 46 18334012791951448693
14117953 113 14405186183751493112
14150022 121 18187926132556468725
14251764 46 18410855455833207503
14344974 52 14117506658361576939
14428016 248 17989488520142390601
14617042 71 18337674230602568260
15065858 18 18113899335020970399
15198563 99 13326586137423115163
15461852 350 16343698868174820135
15510794 2 18040437689449654427
155225 1 18060138735123143265
15773216 30 14260804849010549868
15840311 113 18412265069650516180
16087824 20 18411701011743322564
1754911 235 13973963191226648371
1818759 1 12468636127425795976
19315958 150 18408608041329779594
19841028 212 15430588455471769272
2026 5 7997429221297264664
21102433 48 12540698137508269553
212700 22 10592041362442775436
21362267 2 18270949232887927040
21792934 111 17675925391475229061
21895431 317 9583257024124932404
22149856 69 18186803604599054468
232437 2 10737285744902123313
23576562 1 15840971404231922305
24771293 8 17060348392744771025
249057 3 13542458787158209026
3092352 35 17775844618614311535
335352 9 15051730897646027930
44389302 135 14562524081035325896
54039377 194 8070026662827846179
59521099 67 9151162161133089362
59682541 35 17385443228109896658
6126387 218 17894349961266745285
6201320 82 16414090582318119233
9663363 56 14908177552672270730
9937071 3 10809340036063091664
9953998 17 18040435520818015915

> <PUBCHEM_SHAPE_MULTIPOLES>
655.41
45.87
1.88
1.22
27.09
0.85
0.09
24.8
-5.73
-4.26
-0.45
1.81
0.05
1.31

> <PUBCHEM_SHAPE_SELFOVERLAP>
1413.565

> <PUBCHEM_SHAPE_VOLUME>
360.8

> <PUBCHEM_COORDINATE_TYPE>
2
5
10

$$$$