44451801
  -OEChem-03242010103D

 59 62  0     1  0  0  0  0  0999 V2000
  -11.5485    1.1704    1.0625 Br  0  0  0  0  0  0  0  0  0  0  0  0
    7.9384    2.4775   -0.0619 O   0  0  0  0  0  0  0  0  0  0  0  0
    9.2379    0.0375    0.2098 O   0  0  0  0  0  0  0  0  0  0  0  0
   -5.6901   -1.6624   -0.9927 O   0  0  0  0  0  0  0  0  0  0  0  0
    2.9099   -1.0070    0.0797 N   0  0  2  0  0  0  0  0  0  0  0  0
   -4.8169    0.3342   -0.1094 N   0  0  0  0  0  0  0  0  0  0  0  0
    3.4807   -2.0426    0.9496 C   0  0  0  0  0  0  0  0  0  0  0  0
    3.5701    0.2870    0.3280 C   0  0  0  0  0  0  0  0  0  0  0  0
    4.9437   -2.2931    0.5703 C   0  0  0  0  0  0  0  0  0  0  0  0
    5.0786    0.2103    0.2674 C   0  0  0  0  0  0  0  0  0  0  0  0
    5.7376   -1.0206    0.4287 C   0  0  0  0  0  0  0  0  0  0  0  0
    1.4672   -0.8906    0.2891 C   0  0  0  0  0  0  0  0  0  0  0  0
    0.7924   -0.2196   -0.9076 C   0  0  0  0  0  0  0  0  0  0  0  0
    5.8321    1.3820    0.1142 C   0  0  0  0  0  0  0  0  0  0  0  0
    7.1374   -1.0667    0.3971 C   0  0  0  0  0  0  0  0  0  0  0  0
    7.2256    1.3271    0.0938 C   0  0  0  0  0  0  0  0  0  0  0  0
    7.8774    0.1038    0.2328 C   0  0  0  0  0  0  0  0  0  0  0  0
   -0.6934   -0.0735   -0.6951 C   0  0  0  0  0  0  0  0  0  0  0  0
   -1.5595   -1.0876   -1.1039 C   0  0  0  0  0  0  0  0  0  0  0  0
   -1.2018    1.0764   -0.0909 C   0  0  0  0  0  0  0  0  0  0  0  0
   -2.9339   -0.9519   -0.9088 C   0  0  0  0  0  0  0  0  0  0  0  0
   -2.5761    1.2123    0.1042 C   0  0  0  0  0  0  0  0  0  0  0  0
   -3.4422    0.1982   -0.3048 C   0  0  0  0  0  0  0  0  0  0  0  0
    8.2536    2.8687   -1.3969 C   0  0  0  0  0  0  0  0  0  0  0  0
    9.8262   -1.2533    0.3587 C   0  0  0  0  0  0  0  0  0  0  0  0
   -5.8306   -0.5708   -0.4515 C   0  0  0  0  0  0  0  0  0  0  0  0
   -7.2091   -0.1515   -0.0862 C   0  0  0  0  0  0  0  0  0  0  0  0
   -8.2987   -0.6226   -0.8188 C   0  0  0  0  0  0  0  0  0  0  0  0
   -7.4132    0.7134    0.9891 C   0  0  0  0  0  0  0  0  0  0  0  0
   -9.5921   -0.2287   -0.4765 C   0  0  0  0  0  0  0  0  0  0  0  0
   -8.7067    1.1074    1.3314 C   0  0  0  0  0  0  0  0  0  0  0  0
   -9.7961    0.6364    0.5987 C   0  0  0  0  0  0  0  0  0  0  0  0
    2.9396   -2.9901    0.8364 H   0  0  0  0  0  0  0  0  0  0  0  0
    3.4051   -1.7494    2.0056 H   0  0  0  0  0  0  0  0  0  0  0  0
    3.2978    0.6835    1.3155 H   0  0  0  0  0  0  0  0  0  0  0  0
    3.2487    1.0110   -0.4288 H   0  0  0  0  0  0  0  0  0  0  0  0
    4.9868   -2.8293   -0.3863 H   0  0  0  0  0  0  0  0  0  0  0  0
    5.4003   -2.9339    1.3341 H   0  0  0  0  0  0  0  0  0  0  0  0
    1.0258   -1.8920    0.3890 H   0  0  0  0  0  0  0  0  0  0  0  0
    1.2356   -0.3656    1.2256 H   0  0  0  0  0  0  0  0  0  0  0  0
    0.9753   -0.8007   -1.8214 H   0  0  0  0  0  0  0  0  0  0  0  0
    1.2085    0.7757   -1.1017 H   0  0  0  0  0  0  0  0  0  0  0  0
    5.3292    2.3410    0.0118 H   0  0  0  0  0  0  0  0  0  0  0  0
    7.5881   -2.0479    0.5050 H   0  0  0  0  0  0  0  0  0  0  0  0
   -1.1736   -1.9884   -1.5742 H   0  0  0  0  0  0  0  0  0  0  0  0
   -0.5368    1.8723    0.2336 H   0  0  0  0  0  0  0  0  0  0  0  0
   -3.5378   -1.7799   -1.2518 H   0  0  0  0  0  0  0  0  0  0  0  0
   -2.9580    2.1137    0.5769 H   0  0  0  0  0  0  0  0  0  0  0  0
    8.8289    3.7976   -1.3550 H   0  0  0  0  0  0  0  0  0  0  0  0
    7.3383    3.0492   -1.9696 H   0  0  0  0  0  0  0  0  0  0  0  0
    8.8608    2.1029   -1.8900 H   0  0  0  0  0  0  0  0  0  0  0  0
   10.9122   -1.1184    0.3180 H   0  0  0  0  0  0  0  0  0  0  0  0
    9.5582   -1.9174   -0.4700 H   0  0  0  0  0  0  0  0  0  0  0  0
    9.5977   -1.6913    1.3364 H   0  0  0  0  0  0  0  0  0  0  0  0
   -5.0877    1.2232    0.3015 H   0  0  0  0  0  0  0  0  0  0  0  0
   -8.1604   -1.2929   -1.6632 H   0  0  0  0  0  0  0  0  0  0  0  0
   -6.5994    1.0755    1.6100 H   0  0  0  0  0  0  0  0  0  0  0  0
  -10.4302   -0.6038   -1.0582 H   0  0  0  0  0  0  0  0  0  0  0  0
   -8.8497    1.7756    2.1768 H   0  0  0  0  0  0  0  0  0  0  0  0
  1 32  1  0  0  0  0
  2 16  1  0  0  0  0
  2 24  1  0  0  0  0
  3 17  1  0  0  0  0
  3 25  1  0  0  0  0
  4 26  2  0  0  0  0
  5  7  1  0  0  0  0
  5  8  1  0  0  0  0
  5 12  1  0  0  0  0
  6 23  1  0  0  0  0
  6 26  1  0  0  0  0
  6 55  1  0  0  0  0
  7  9  1  0  0  0  0
  7 33  1  0  0  0  0
  7 34  1  0  0  0  0
  8 10  1  0  0  0  0
  8 35  1  0  0  0  0
  8 36  1  0  0  0  0
  9 11  1  0  0  0  0
  9 37  1  0  0  0  0
  9 38  1  0  0  0  0
 10 11  1  0  0  0  0
 10 14  2  0  0  0  0
 11 15  2  0  0  0  0
 12 13  1  0  0  0  0
 12 39  1  0  0  0  0
 12 40  1  0  0  0  0
 13 18  1  0  0  0  0
 13 41  1  0  0  0  0
 13 42  1  0  0  0  0
 14 16  1  0  0  0  0
 14 43  1  0  0  0  0
 15 17  1  0  0  0  0
 15 44  1  0  0  0  0
 16 17  2  0  0  0  0
 18 19  2  0  0  0  0
 18 20  1  0  0  0  0
 19 21  1  0  0  0  0
 19 45  1  0  0  0  0
 20 22  2  0  0  0  0
 20 46  1  0  0  0  0
 21 23  2  0  0  0  0
 21 47  1  0  0  0  0
 22 23  1  0  0  0  0
 22 48  1  0  0  0  0
 24 49  1  0  0  0  0
 24 50  1  0  0  0  0
 24 51  1  0  0  0  0
 25 52  1  0  0  0  0
 25 53  1  0  0  0  0
 25 54  1  0  0  0  0
 26 27  1  0  0  0  0
 27 28  2  0  0  0  0
 27 29  1  0  0  0  0
 28 30  1  0  0  0  0
 28 56  1  0  0  0  0
 29 31  2  0  0  0  0
 29 57  1  0  0  0  0
 30 32  2  0  0  0  0
 30 58  1  0  0  0  0
 31 32  1  0  0  0  0
 31 59  1  0  0  0  0
M  END
> <PUBCHEM_COMPOUND_CID>
44451801

> <PUBCHEM_CONFORMER_RMSD>
1

> <PUBCHEM_CONFORMER_DIVERSEORDER>
3
7
44
22
42
18
5
24
37
41
4
32
39
9
1
38
30
11
28
35
27
10
31
8
43
21
33
2
17
13
36
45
20
12
6
19
23
25
34
29
15
14
26
40
16

> <PUBCHEM_MMFF94_PARTIAL_CHARGES>
43
1 -0.11
10 -0.14
11 -0.14
12 0.27
13 0.14
14 -0.15
15 -0.15
16 0.08
17 0.08
18 -0.14
19 -0.15
2 -0.36
20 -0.15
21 -0.15
22 -0.15
23 0.12
24 0.28
25 0.28
26 0.54
27 0.09
28 -0.15
29 -0.15
3 -0.36
30 -0.15
31 -0.15
32 0.11
4 -0.57
43 0.15
44 0.15
45 0.15
46 0.15
47 0.15
48 0.15
5 -0.81
55 0.37
56 0.15
57 0.15
58 0.15
59 0.15
6 -0.55
7 0.27
8 0.41
9 0.14

> <PUBCHEM_EFFECTIVE_ROTOR_COUNT>
8.8

> <PUBCHEM_PHARMACOPHORE_FEATURES>
10
1 1 hydrophobe
1 2 acceptor
1 3 acceptor
1 4 acceptor
1 5 cation
1 6 donor
6 10 11 14 15 16 17 rings
6 18 19 20 21 22 23 rings
6 27 28 29 30 31 32 rings
6 5 7 8 9 10 11 rings

> <PUBCHEM_HEAVY_ATOM_COUNT>
32

> <PUBCHEM_ATOM_DEF_STEREO_COUNT>
0

> <PUBCHEM_ATOM_UDEF_STEREO_COUNT>
0

> <PUBCHEM_BOND_DEF_STEREO_COUNT>
0

> <PUBCHEM_BOND_UDEF_STEREO_COUNT>
0

> <PUBCHEM_ISOTOPIC_ATOM_COUNT>
0

> <PUBCHEM_COMPONENT_COUNT>
1

> <PUBCHEM_CACTVS_TAUTO_COUNT>
2

> <PUBCHEM_CONFORMER_ID>
02A647D900000003

> <PUBCHEM_MMFF94_ENERGY>
110.7625

> <PUBCHEM_FEATURE_SELFOVERLAP>
50.772

> <PUBCHEM_SHAPE_FINGERPRINT>
10 15 18272934904385627163
10299344 5 18272084998164868723
10391435 84 17385730214083569235
106641 1 17894912923224327767
11135609 127 8718244851111727082
11315181 36 18342738525699419795
11409948 35 15841281333472633654
12013929 94 18339079398041775363
12089408 11 18343862230134253887
12144603 126 18342175566560055855
12522641 33 18273216387024748143
12664476 115 17203603783506229968
14150022 121 17775289305935896337
14251764 18 18202279204705296139
14251764 46 17167581579372600643
14428016 248 18343024406627111681
14617042 71 18261677086165000932
15061470 23 17703787015880602897
15065858 18 16877657964304968563
15183329 4 10375872974148548359
15247644 1 14634871933605978313
15347591 1 18047466734009534362
15392192 104 17988924475083761103
15461852 350 16415190210009549567
15510794 2 16298666101152272627
15773216 30 15625677011438651876
15840311 113 18335422387981187084
16728433 110 18040716970636631829
19315958 150 18408325462883966947
19841028 212 17168418251613068523
21362267 2 18261377992631490997
21772524 286 17630335143117105913
232437 2 18408321077310381411
24771293 8 17918279728091747693
3092352 35 18131066039402552591
335507 130 17894629249113624991
4073 2 18040998492499709034
439807 62 18413106165501043232
44389302 135 18130780124311041406
44426699 302 16081663295598171932
4625314 4 18201717383558387606
5028188 123 17274818116296767149
59682541 35 17022903453969762531
6691757 9 17203894089964725855
67123 10 18410572890636456115
9663363 56 16008746905310439535

> <PUBCHEM_SHAPE_MULTIPOLES>
636.92
42.73
1.98
1.05
37.42
0.57
0.05
12.21
-8.2
-4.79
0.15
1.05
0.06
-3.5

> <PUBCHEM_SHAPE_SELFOVERLAP>
1356.667

> <PUBCHEM_SHAPE_VOLUME>
363.2

> <PUBCHEM_COORDINATE_TYPE>
2
5
10

$$$$