44451513
  -OEChem-03242010103D

 53 56  0     1  0  0  0  0  0999 V2000
   -4.2517    1.6626   -1.0038 O   0  0  0  0  0  0  0  0  0  0  0  0
    4.1892   -0.1824   -0.1813 N   0  0  2  0  0  0  0  0  0  0  0  0
   -3.6511   -0.3970   -0.0414 N   0  0  0  0  0  0  0  0  0  0  0  0
   -9.9680   -0.1930    1.0485 N   0  0  0  0  0  0  0  0  0  0  0  0
    4.7107   -1.5222    0.1156 C   0  0  0  0  0  0  0  0  0  0  0  0
    4.9172    0.8322    0.6013 C   0  0  0  0  0  0  0  0  0  0  0  0
    6.1561   -1.6390   -0.3791 C   0  0  0  0  0  0  0  0  0  0  0  0
    2.7557   -0.1093    0.0980 C   0  0  0  0  0  0  0  0  0  0  0  0
    6.4192    0.7250    0.4693 C   0  0  0  0  0  0  0  0  0  0  0  0
    7.0143   -0.4747    0.0424 C   0  0  0  0  0  0  0  0  0  0  0  0
    1.9436   -0.7301   -1.0392 C   0  0  0  0  0  0  0  0  0  0  0  0
    7.2317    1.8065    0.8359 C   0  0  0  0  0  0  0  0  0  0  0  0
    8.4094   -0.5630   -0.0473 C   0  0  0  0  0  0  0  0  0  0  0  0
    0.4619   -0.6413   -0.7739 C   0  0  0  0  0  0  0  0  0  0  0  0
    8.6202    1.7058    0.7524 C   0  0  0  0  0  0  0  0  0  0  0  0
    9.2083    0.5232    0.3090 C   0  0  0  0  0  0  0  0  0  0  0  0
   -0.1878   -1.6713   -0.0935 C   0  0  0  0  0  0  0  0  0  0  0  0
   -0.2595    0.4701   -1.2098 C   0  0  0  0  0  0  0  0  0  0  0  0
   -1.5586   -1.5900    0.1506 C   0  0  0  0  0  0  0  0  0  0  0  0
   -1.6303    0.5515   -0.9657 C   0  0  0  0  0  0  0  0  0  0  0  0
   -2.2799   -0.4786   -0.2856 C   0  0  0  0  0  0  0  0  0  0  0  0
   -4.5316    0.6320   -0.4008 C   0  0  0  0  0  0  0  0  0  0  0  0
   -5.9528    0.4158   -0.0224 C   0  0  0  0  0  0  0  0  0  0  0  0
   -6.9707    1.0185   -0.7616 C   0  0  0  0  0  0  0  0  0  0  0  0
   -6.2687   -0.3890    1.0722 C   0  0  0  0  0  0  0  0  0  0  0  0
   -8.3043    0.8166   -0.4062 C   0  0  0  0  0  0  0  0  0  0  0  0
   -7.6023   -0.5908    1.4278 C   0  0  0  0  0  0  0  0  0  0  0  0
   -8.6200    0.0120    0.6886 C   0  0  0  0  0  0  0  0  0  0  0  0
    4.1308   -2.3069   -0.3815 H   0  0  0  0  0  0  0  0  0  0  0  0
    4.6653   -1.7263    1.1943 H   0  0  0  0  0  0  0  0  0  0  0  0
    4.6653    0.7540    1.6676 H   0  0  0  0  0  0  0  0  0  0  0  0
    4.6122    1.8265    0.2514 H   0  0  0  0  0  0  0  0  0  0  0  0
    6.1645   -1.6893   -1.4755 H   0  0  0  0  0  0  0  0  0  0  0  0
    6.5851   -2.5733    0.0022 H   0  0  0  0  0  0  0  0  0  0  0  0
    2.5098   -0.5731    1.0628 H   0  0  0  0  0  0  0  0  0  0  0  0
    2.4495    0.9429    0.1810 H   0  0  0  0  0  0  0  0  0  0  0  0
    2.2039   -1.7833   -1.1958 H   0  0  0  0  0  0  0  0  0  0  0  0
    2.1732   -0.2252   -1.9872 H   0  0  0  0  0  0  0  0  0  0  0  0
    6.7858    2.7329    1.1888 H   0  0  0  0  0  0  0  0  0  0  0  0
    8.8801   -1.4787   -0.3957 H   0  0  0  0  0  0  0  0  0  0  0  0
    9.2432    2.5497    1.0340 H   0  0  0  0  0  0  0  0  0  0  0  0
   10.2896    0.4469    0.2408 H   0  0  0  0  0  0  0  0  0  0  0  0
    0.3640   -2.5412    0.2528 H   0  0  0  0  0  0  0  0  0  0  0  0
    0.2371    1.2791   -1.7393 H   0  0  0  0  0  0  0  0  0  0  0  0
   -2.0514   -2.3999    0.6826 H   0  0  0  0  0  0  0  0  0  0  0  0
   -2.1176    1.4430   -1.3340 H   0  0  0  0  0  0  0  0  0  0  0  0
   -4.0342   -1.2177    0.4187 H   0  0  0  0  0  0  0  0  0  0  0  0
   -6.7466    1.6449   -1.6211 H   0  0  0  0  0  0  0  0  0  0  0  0
   -5.5105   -0.8471    1.7000 H   0  0  0  0  0  0  0  0  0  0  0  0
   -9.0886    1.2907   -0.9908 H   0  0  0  0  0  0  0  0  0  0  0  0
   -7.8358   -1.2132    2.2879 H   0  0  0  0  0  0  0  0  0  0  0  0
  -10.7068    0.2441    0.5139 H   0  0  0  0  0  0  0  0  0  0  0  0
  -10.1970   -0.7758    1.8426 H   0  0  0  0  0  0  0  0  0  0  0  0
  1 22  2  0  0  0  0
  2  5  1  0  0  0  0
  2  6  1  0  0  0  0
  2  8  1  0  0  0  0
  3 21  1  0  0  0  0
  3 22  1  0  0  0  0
  3 47  1  0  0  0  0
  4 28  1  0  0  0  0
  4 52  1  0  0  0  0
  4 53  1  0  0  0  0
  5  7  1  0  0  0  0
  5 29  1  0  0  0  0
  5 30  1  0  0  0  0
  6  9  1  0  0  0  0
  6 31  1  0  0  0  0
  6 32  1  0  0  0  0
  7 10  1  0  0  0  0
  7 33  1  0  0  0  0
  7 34  1  0  0  0  0
  8 11  1  0  0  0  0
  8 35  1  0  0  0  0
  8 36  1  0  0  0  0
  9 10  1  0  0  0  0
  9 12  2  0  0  0  0
 10 13  2  0  0  0  0
 11 14  1  0  0  0  0
 11 37  1  0  0  0  0
 11 38  1  0  0  0  0
 12 15  1  0  0  0  0
 12 39  1  0  0  0  0
 13 16  1  0  0  0  0
 13 40  1  0  0  0  0
 14 17  2  0  0  0  0
 14 18  1  0  0  0  0
 15 16  2  0  0  0  0
 15 41  1  0  0  0  0
 16 42  1  0  0  0  0
 17 19  1  0  0  0  0
 17 43  1  0  0  0  0
 18 20  2  0  0  0  0
 18 44  1  0  0  0  0
 19 21  2  0  0  0  0
 19 45  1  0  0  0  0
 20 21  1  0  0  0  0
 20 46  1  0  0  0  0
 22 23  1  0  0  0  0
 23 24  2  0  0  0  0
 23 25  1  0  0  0  0
 24 26  1  0  0  0  0
 24 48  1  0  0  0  0
 25 27  2  0  0  0  0
 25 49  1  0  0  0  0
 26 28  2  0  0  0  0
 26 50  1  0  0  0  0
 27 28  1  0  0  0  0
 27 51  1  0  0  0  0
M  END
> <PUBCHEM_COMPOUND_CID>
44451513

> <PUBCHEM_CONFORMER_RMSD>
0.8

> <PUBCHEM_CONFORMER_DIVERSEORDER>
3
38
30
8
50
59
46
58
36
31
9
48
39
53
35
47
18
19
25
55
24
51
21
41
57
44
6
22
40
32
54
49
56
29
43
1
37
12
28
2
20
7
10
4
26
52
16
11
42
5
33
45
15
14
17
34
23
27
13

> <PUBCHEM_MMFF94_PARTIAL_CHARGES>
43
1 -0.57
10 -0.14
11 0.14
12 -0.15
13 -0.15
14 -0.14
15 -0.15
16 -0.15
17 -0.15
18 -0.15
19 -0.15
2 -0.81
20 -0.15
21 0.12
22 0.54
23 0.09
24 -0.15
25 -0.15
26 -0.15
27 -0.15
28 0.1
3 -0.55
39 0.15
4 -0.9
40 0.15
41 0.15
42 0.15
43 0.15
44 0.15
45 0.15
46 0.15
47 0.37
48 0.15
49 0.15
5 0.27
50 0.15
51 0.15
52 0.4
53 0.4
6 0.41
7 0.14
8 0.27
9 -0.14

> <PUBCHEM_EFFECTIVE_ROTOR_COUNT>
6.8

> <PUBCHEM_PHARMACOPHORE_FEATURES>
9
1 1 acceptor
1 2 cation
1 3 donor
1 4 cation
1 4 donor
6 14 17 18 19 20 21 rings
6 2 5 6 7 9 10 rings
6 23 24 25 26 27 28 rings
6 9 10 12 13 15 16 rings

> <PUBCHEM_HEAVY_ATOM_COUNT>
28

> <PUBCHEM_ATOM_DEF_STEREO_COUNT>
0

> <PUBCHEM_ATOM_UDEF_STEREO_COUNT>
0

> <PUBCHEM_BOND_DEF_STEREO_COUNT>
0

> <PUBCHEM_BOND_UDEF_STEREO_COUNT>
0

> <PUBCHEM_ISOTOPIC_ATOM_COUNT>
0

> <PUBCHEM_COMPONENT_COUNT>
1

> <PUBCHEM_CACTVS_TAUTO_COUNT>
5

> <PUBCHEM_CONFORMER_ID>
02A646B900000003

> <PUBCHEM_MMFF94_ENERGY>
91.4176

> <PUBCHEM_FEATURE_SELFOVERLAP>
45.693

> <PUBCHEM_SHAPE_FINGERPRINT>
10 15 18334293171288569899
10076449 9 11743841365980282635
10533779 47 18336554819753000498
106641 1 18186239541499926161
10883706 142 17632298977972534639
11135609 127 14835828639703002944
11181472 205 16271941367596383690
11315181 36 17632295680076006511
11408170 108 13407065964728055593
12089408 11 16702299044401388799
12522641 33 17489588943992490695
12539745 222 14707197804317744391
12643181 29 8286193955683697505
12741549 16 15646768994882169279
13885169 127 8214151763134541231
13974486 7 17244724583259570099
14117953 113 12463570694889929272
14150022 121 18338517439904305989
14251764 18 17749107798540188878
14251764 46 18410575080373399363
14294032 229 14260810359580288243
14428016 248 17060623308625828225
14428016 86 18130790053498891230
14617042 71 18270679892063927704
14849402 71 18060136578607027649
15183329 4 15410896266658666354
15247644 1 14129059213944308768
15301273 46 18113616763761729159
15461852 350 15984816073803098405
15510794 2 18113337483540018362
155225 1 17346599681313380928
15690457 1 14129057023763707048
15706992 2 17703518769761612961
1577012 14 17846489349021683502
15840311 113 18413109485885387348
15849732 13 18113338604863878615
1754911 235 11600005432203327185
18335252 98 18259985951070223114
18603816 31 14273745096664205521
19301679 30 15502919824422421698
19302320 297 18262229037329798936
19315958 150 18411984659351207398
19841028 212 16733538313420730090
2026 5 11242508022805474280
20771845 140 16009018498458874752
21033648 29 18200015374999321760
21095123 293 16774083960030707393
21130935 74 18042122051406600235
21792934 111 17967531280950983356
22224240 67 18334294266568904075
232437 2 16298385747847490450
23576562 1 15194420083681206057
246663 6 11746935382340295522
249057 3 13110956539727387281
3092352 35 16845289440730279511
335352 9 11527943436119248129
3383291 50 17458350757864077907
3711267 37 17918283064295511016
395649 100 18200303442688535607
4017518 198 8502652602695401777
4073 2 18260829354458015602
5219985 9 14417852540080823559
5758199 1 17132114632848431455
58902169 19 15913317031540984180
59521099 67 11169921593396842550
59682541 35 18261114080170451099
6201320 215 13334999571140993135
636775 72 18339923698397029521
67123 10 18272368681229412807
9953998 17 18408324410959364235
9962374 69 14201404927383772043

> <PUBCHEM_SHAPE_MULTIPOLES>
555.41
35.24
1.54
1.06
8.03
0.01
0.03
-9.47
10.8
-2.18
0.03
1.29
-0.09
2.02

> <PUBCHEM_SHAPE_SELFOVERLAP>
1204.476

> <PUBCHEM_SHAPE_VOLUME>
302.8

> <PUBCHEM_COORDINATE_TYPE>
2
5
10

$$$$