44451773
  -OEChem-03242010103D

 65 69  0     1  0  0  0  0  0999 V2000
    8.7264    2.5778   -0.3846 O   0  0  0  0  0  0  0  0  0  0  0  0
    9.9510    0.1329    0.1045 O   0  0  0  0  0  0  0  0  0  0  0  0
   -4.8504    0.2169   -1.7546 O   0  0  0  0  0  0  0  0  0  0  0  0
    3.5960   -0.7357   -0.0006 N   0  0  2  0  0  0  0  0  0  0  0  0
   -4.2412   -1.0213    0.1491 N   0  0  0  0  0  0  0  0  0  0  0  0
    4.1293   -1.7104    0.9591 C   0  0  0  0  0  0  0  0  0  0  0  0
    4.2923    0.5550    0.1445 C   0  0  0  0  0  0  0  0  0  0  0  0
    5.5872   -2.0341    0.6169 C   0  0  0  0  0  0  0  0  0  0  0  0
    5.7983    0.4299    0.1057 C   0  0  0  0  0  0  0  0  0  0  0  0
    6.4194   -0.8015    0.3765 C   0  0  0  0  0  0  0  0  0  0  0  0
    2.1559   -0.5607    0.1838 C   0  0  0  0  0  0  0  0  0  0  0  0
    1.3771   -1.7024   -0.4701 C   0  0  0  0  0  0  0  0  0  0  0  0
    6.5872    1.5622   -0.1380 C   0  0  0  0  0  0  0  0  0  0  0  0
    7.8174   -0.8905    0.3630 C   0  0  0  0  0  0  0  0  0  0  0  0
    7.9787    1.4656   -0.1397 C   0  0  0  0  0  0  0  0  0  0  0  0
    8.5929    0.2401    0.1083 C   0  0  0  0  0  0  0  0  0  0  0  0
   -0.1111   -1.5225   -0.3064 C   0  0  0  0  0  0  0  0  0  0  0  0
   -0.7603   -2.0587    0.8057 C   0  0  0  0  0  0  0  0  0  0  0  0
   -0.8384   -0.8193   -1.2666 C   0  0  0  0  0  0  0  0  0  0  0  0
   -2.1369   -1.8914    0.9575 C   0  0  0  0  0  0  0  0  0  0  0  0
   -2.2150   -0.6523   -1.1150 C   0  0  0  0  0  0  0  0  0  0  0  0
   -2.8642   -1.1884   -0.0030 C   0  0  0  0  0  0  0  0  0  0  0  0
    9.1008    3.3677    0.7426 C   0  0  0  0  0  0  0  0  0  0  0  0
   10.5726   -0.1817   -1.1402 C   0  0  0  0  0  0  0  0  0  0  0  0
   -6.5535   -0.3694   -0.2826 C   0  0  0  0  0  0  0  0  0  0  0  0
   -5.1282   -0.3518   -0.7042 C   0  0  0  0  0  0  0  0  0  0  0  0
   -7.2763    0.8053   -0.0184 C   0  0  0  0  0  0  0  0  0  0  0  0
   -8.6311    0.7096    0.3796 C   0  0  0  0  0  0  0  0  0  0  0  0
   -7.1577   -1.6206   -0.1563 C   0  0  0  0  0  0  0  0  0  0  0  0
   -6.6843    2.0730   -0.1404 C   0  0  0  0  0  0  0  0  0  0  0  0
   -9.2231   -0.5581    0.5016 C   0  0  0  0  0  0  0  0  0  0  0  0
   -8.4900   -1.7148    0.2351 C   0  0  0  0  0  0  0  0  0  0  0  0
   -9.3539    1.8843    0.6438 C   0  0  0  0  0  0  0  0  0  0  0  0
   -7.4175    3.2296    0.1261 C   0  0  0  0  0  0  0  0  0  0  0  0
   -8.7497    3.1355    0.5175 C   0  0  0  0  0  0  0  0  0  0  0  0
    3.5719   -2.6526    0.9384 H   0  0  0  0  0  0  0  0  0  0  0  0
    4.0622   -1.3219    1.9848 H   0  0  0  0  0  0  0  0  0  0  0  0
    3.9814    1.2124   -0.6772 H   0  0  0  0  0  0  0  0  0  0  0  0
    4.0180    1.0397    1.0912 H   0  0  0  0  0  0  0  0  0  0  0  0
    5.6216   -2.6504   -0.2906 H   0  0  0  0  0  0  0  0  0  0  0  0
    6.0203   -2.6201    1.4363 H   0  0  0  0  0  0  0  0  0  0  0  0
    1.8959   -0.4578    1.2461 H   0  0  0  0  0  0  0  0  0  0  0  0
    1.8333    0.3726   -0.2986 H   0  0  0  0  0  0  0  0  0  0  0  0
    1.6195   -1.7618   -1.5397 H   0  0  0  0  0  0  0  0  0  0  0  0
    1.6553   -2.6761   -0.0505 H   0  0  0  0  0  0  0  0  0  0  0  0
    6.1135    2.5228   -0.3274 H   0  0  0  0  0  0  0  0  0  0  0  0
    8.3019   -1.8457    0.5524 H   0  0  0  0  0  0  0  0  0  0  0  0
   -0.2040   -2.6065    1.5617 H   0  0  0  0  0  0  0  0  0  0  0  0
   -0.3422   -0.3957   -2.1359 H   0  0  0  0  0  0  0  0  0  0  0  0
   -2.6297   -2.3141    1.8294 H   0  0  0  0  0  0  0  0  0  0  0  0
   -2.7068   -0.0958   -1.9002 H   0  0  0  0  0  0  0  0  0  0  0  0
    8.2124    3.7562    1.2506 H   0  0  0  0  0  0  0  0  0  0  0  0
    9.7067    2.7810    1.4403 H   0  0  0  0  0  0  0  0  0  0  0  0
    9.6972    4.2120    0.3862 H   0  0  0  0  0  0  0  0  0  0  0  0
   10.2321   -1.1567   -1.5031 H   0  0  0  0  0  0  0  0  0  0  0  0
   11.6536   -0.2255   -0.9818 H   0  0  0  0  0  0  0  0  0  0  0  0
   10.3589    0.5921   -1.8842 H   0  0  0  0  0  0  0  0  0  0  0  0
   -4.6381   -1.4395    0.9881 H   0  0  0  0  0  0  0  0  0  0  0  0
   -6.6054   -2.5334   -0.3658 H   0  0  0  0  0  0  0  0  0  0  0  0
   -5.6443    2.1997   -0.4284 H   0  0  0  0  0  0  0  0  0  0  0  0
  -10.2632   -0.6555    0.8058 H   0  0  0  0  0  0  0  0  0  0  0  0
   -8.9603   -2.6890    0.3319 H   0  0  0  0  0  0  0  0  0  0  0  0
  -10.3963    1.8346    0.9513 H   0  0  0  0  0  0  0  0  0  0  0  0
   -6.9472    4.2041    0.0313 H   0  0  0  0  0  0  0  0  0  0  0  0
   -9.3197    4.0364    0.7256 H   0  0  0  0  0  0  0  0  0  0  0  0
  1 15  1  0  0  0  0
  1 23  1  0  0  0  0
  2 16  1  0  0  0  0
  2 24  1  0  0  0  0
  3 26  2  0  0  0  0
  4  6  1  0  0  0  0
  4  7  1  0  0  0  0
  4 11  1  0  0  0  0
  5 22  1  0  0  0  0
  5 26  1  0  0  0  0
  5 58  1  0  0  0  0
  6  8  1  0  0  0  0
  6 36  1  0  0  0  0
  6 37  1  0  0  0  0
  7  9  1  0  0  0  0
  7 38  1  0  0  0  0
  7 39  1  0  0  0  0
  8 10  1  0  0  0  0
  8 40  1  0  0  0  0
  8 41  1  0  0  0  0
  9 10  1  0  0  0  0
  9 13  2  0  0  0  0
 10 14  2  0  0  0  0
 11 12  1  0  0  0  0
 11 42  1  0  0  0  0
 11 43  1  0  0  0  0
 12 17  1  0  0  0  0
 12 44  1  0  0  0  0
 12 45  1  0  0  0  0
 13 15  1  0  0  0  0
 13 46  1  0  0  0  0
 14 16  1  0  0  0  0
 14 47  1  0  0  0  0
 15 16  2  0  0  0  0
 17 18  2  0  0  0  0
 17 19  1  0  0  0  0
 18 20  1  0  0  0  0
 18 48  1  0  0  0  0
 19 21  2  0  0  0  0
 19 49  1  0  0  0  0
 20 22  2  0  0  0  0
 20 50  1  0  0  0  0
 21 22  1  0  0  0  0
 21 51  1  0  0  0  0
 23 52  1  0  0  0  0
 23 53  1  0  0  0  0
 23 54  1  0  0  0  0
 24 55  1  0  0  0  0
 24 56  1  0  0  0  0
 24 57  1  0  0  0  0
 25 26  1  0  0  0  0
 25 27  1  0  0  0  0
 25 29  2  0  0  0  0
 27 28  1  0  0  0  0
 27 30  2  0  0  0  0
 28 31  1  0  0  0  0
 28 33  2  0  0  0  0
 29 32  1  0  0  0  0
 29 59  1  0  0  0  0
 30 34  1  0  0  0  0
 30 60  1  0  0  0  0
 31 32  2  0  0  0  0
 31 61  1  0  0  0  0
 32 62  1  0  0  0  0
 33 35  1  0  0  0  0
 33 63  1  0  0  0  0
 34 35  2  0  0  0  0
 34 64  1  0  0  0  0
 35 65  1  0  0  0  0
M  END
> <PUBCHEM_COMPOUND_CID>
44451773

> <PUBCHEM_CONFORMER_RMSD>
1

> <PUBCHEM_CONFORMER_DIVERSEORDER>
1
95
67
121
134
140
19
130
132
37
126
80
52
39
112
69
90
78
131
115
85
53
61
137
129
123
28
100
116
11
55
38
96
128
49
99
86
77
139
133
2
72
122
104
36
124
87
57
92
82
83
107
12
27
103
58
127
8
119
136
117
98
46
3
89
91
102
21
81
51
18
88
138
66
5
120
45
71
125
43
97
93
32
47
65
70
9
105
4
25
54
35
6
74
30
109
135
68
60
106
84
14
73
20
113
24
108
79
13
118
10
41
94
48
76
110
64
62
34
33
111
101
22
40
17
75
63
42
15
114
44
59
56
26
31
29
23
50
16
7

> <PUBCHEM_MMFF94_PARTIAL_CHARGES>
47
1 -0.36
10 -0.14
11 0.27
12 0.14
13 -0.15
14 -0.15
15 0.08
16 0.08
17 -0.14
18 -0.15
19 -0.15
2 -0.36
20 -0.15
21 -0.15
22 0.12
23 0.28
24 0.28
25 0.09
26 0.54
29 -0.15
3 -0.57
30 -0.15
31 -0.15
32 -0.15
33 -0.15
34 -0.15
35 -0.15
4 -0.81
46 0.15
47 0.15
48 0.15
49 0.15
5 -0.55
50 0.15
51 0.15
58 0.37
59 0.15
6 0.27
60 0.15
61 0.15
62 0.15
63 0.15
64 0.15
65 0.15
7 0.41
8 0.14
9 -0.14

> <PUBCHEM_EFFECTIVE_ROTOR_COUNT>
8.8

> <PUBCHEM_PHARMACOPHORE_FEATURES>
10
1 1 acceptor
1 2 acceptor
1 3 acceptor
1 4 cation
1 5 donor
6 17 18 19 20 21 22 rings
6 25 27 28 29 31 32 rings
6 27 28 30 33 34 35 rings
6 4 6 7 8 9 10 rings
6 9 10 13 14 15 16 rings

> <PUBCHEM_HEAVY_ATOM_COUNT>
35

> <PUBCHEM_ATOM_DEF_STEREO_COUNT>
0

> <PUBCHEM_ATOM_UDEF_STEREO_COUNT>
0

> <PUBCHEM_BOND_DEF_STEREO_COUNT>
0

> <PUBCHEM_BOND_UDEF_STEREO_COUNT>
0

> <PUBCHEM_ISOTOPIC_ATOM_COUNT>
0

> <PUBCHEM_COMPONENT_COUNT>
1

> <PUBCHEM_CACTVS_TAUTO_COUNT>
2

> <PUBCHEM_CONFORMER_ID>
02A647BD00000001

> <PUBCHEM_MMFF94_ENERGY>
129.4507

> <PUBCHEM_FEATURE_SELFOVERLAP>
50.8

> <PUBCHEM_SHAPE_FINGERPRINT>
10 15 17458340849448475722
10369192 42 18342735205362900023
10580692 12 18409730664893681819
11061554 47 18335696166028791468
11135609 99 11170209656989131697
11181472 205 18129385916973427458
11386260 185 14404890419461320178
11409948 35 17560527184724821598
11578821 258 18272933813090356001
11607047 74 9078814296626321434
11966995 178 18407761427126323846
11973864 220 17988369170188471457
12013929 94 18337391664773080579
12089408 11 18413385445063883966
12539745 222 12107775303458007175
12539765 74 18272371936282705366
12559415 86 18059306370339670924
13150687 139 13686299088542092876
13248334 5 17980483365245948079
13947947 74 18407757050132162808
14117953 113 14836122173982567944
14849402 71 18334295388177808749
15198563 99 14692580888058881691
15247644 1 12107504823397068896
15604295 49 18341045332630915360
15706992 2 18411145718993546379
1577012 14 18343012290160444519
15840311 113 18334860541892077716
16989713 51 17202469170055490167
17686467 74 18113619023969529179
19315958 150 18410859836975124014
20501277 180 17559671927470723728
20721686 146 18129098915207594869
21095123 293 18343300357732638741
21362267 313 18339075970240901946
21585482 111 18336825278602976077
21772524 286 18267867181947649569
23576562 1 15266189563651268577
24771293 8 18187366519691850799
3092352 35 18272647960972225903
3711267 37 18342185465821961105
437795 150 13613936947950136205
44280117 145 18194402414820845079
44802255 64 17418089902842310479
45270241 37 18343587322574476470
5758199 1 18040435469573937595
5937810 71 17917438584442979081
6081469 158 15698004033465623698
6201320 82 17201934635510863985
636775 72 18410012114211267505
6691757 9 16226051115597795067
6698420 124 18260829324087172762
67123 10 18408322207140163211
9937071 3 12757144672035990704
9953998 17 17821731629204925363
9962374 69 14924234867001256511

> <PUBCHEM_SHAPE_MULTIPOLES>
692.71
43.31
3.05
0.97
21.76
2.64
-0.17
26.66
2.41
-1.59
0.65
-0.05
-0.15
-0.63

> <PUBCHEM_SHAPE_SELFOVERLAP>
1515.8

> <PUBCHEM_SHAPE_VOLUME>
375.9

> <PUBCHEM_COORDINATE_TYPE>
2
5
10

$$$$