76
 OpenBabel03292021523D

201201  0  0  1  0  0  0  0  0999 V2000
    1.6704    0.3703   -0.8690 C   0  0  0  0  0  0  0  0  0  0  0  0
    2.5086    0.5631    0.3524 C   0  0  0  0  0  0  0  0  0  0  0  0
    3.8210    0.2766    0.4152 C   0  0  0  0  0  0  0  0  0  0  0  0
    4.6623    0.5977    1.6179 C   0  0  0  0  0  0  0  0  0  0  0  0
    5.4527   -0.5635    2.2393 C   0  0  1  0  0  0  0  0  0  0  0  0
    4.4780   -1.7040    2.6444 C   0  0  0  0  0  0  0  0  0  0  0  0
    6.6807   -1.1165    1.4305 C   0  0  1  0  0  0  0  0  0  0  0  0
    7.2601   -2.0842    2.3442 O   0  0  0  0  0  0  0  0  0  0  0  0
    7.8201   -0.0545    0.9396 C   0  0  1  0  0  0  0  0  0  0  0  0
    8.0119   -0.0344   -0.7064 C   0  0  0  0  0  0  0  0  0  0  0  0
    7.1868   -0.7024   -1.3456 O   0  0  0  0  0  0  0  0  0  0  0  0
    8.7527    0.7220   -1.5779 N   0  0  0  0  0  0  0  0  0  0  0  0
    9.8856    1.7258   -1.8505 C   0  0  1  0  0  0  0  0  0  0  0  0
   11.1331    1.0037   -2.5325 C   0  0  1  0  0  0  0  0  0  0  0  0
   10.8672    0.2117   -3.8195 C   0  0  0  0  0  0  0  0  0  0  0  0
   12.2074    1.9180   -2.7978 O   0  0  0  0  0  0  0  0  0  0  0  0
    9.5807    2.9470   -2.8319 C   0  0  0  0  0  0  0  0  0  0  0  0
    9.0654    2.7707   -3.9504 O   0  0  0  0  0  0  0  0  0  0  0  0
   10.0541    4.2028   -2.4310 N   0  0  0  0  0  0  0  0  0  0  0  0
   11.1963    4.8629   -3.1226 C   0  0  0  0  0  0  0  0  0  0  0  0
   11.7982    6.2307   -2.6244 C   0  0  0  0  0  0  0  0  0  0  0  0
   12.9052    6.5992   -2.9929 O   0  0  0  0  0  0  0  0  0  0  0  0
   11.0720    6.9390   -1.6430 N   0  0  0  0  0  0  0  0  0  0  0  0
    9.6925    7.1908   -1.9523 C   0  0  0  0  0  0  0  0  0  0  0  0
   11.8099    7.7699   -0.6184 C   0  0  2  0  0  0  0  0  0  0  0  0
   11.0881    7.8463    0.7659 C   0  0  0  0  0  0  0  0  0  0  0  0
    9.6928    8.5033    0.9194 C   0  0  0  0  0  0  0  0  0  0  0  0
    9.1830    8.3560    2.3617 C   0  0  0  0  0  0  0  0  0  0  0  0
    9.6517    9.9746    0.5238 C   0  0  0  0  0  0  0  0  0  0  0  0
   12.3864    9.1368   -1.0947 C   0  0  0  0  0  0  0  0  0  0  0  0
   11.7691    9.8496   -1.8917 O   0  0  0  0  0  0  0  0  0  0  0  0
   13.5516    9.6578   -0.5694 N   0  0  0  0  0  0  0  0  0  0  0  0
   14.8297    8.9644   -0.2377 C   0  0  1  0  0  0  0  0  0  0  0  0
   16.0169    9.6679   -0.8918 C   0  0  0  0  0  0  0  0  0  0  0  0
   16.0538    9.8393   -2.4133 C   0  0  0  0  0  0  0  0  0  0  0  0
   17.2796   10.7009   -2.7567 C   0  0  0  0  0  0  0  0  0  0  0  0
   16.1437    8.5014   -3.1372 C   0  0  0  0  0  0  0  0  0  0  0  0
   14.9858    8.7719    1.3156 C   0  0  0  0  0  0  0  0  0  0  0  0
   14.2364    7.9237    1.8255 O   0  0  0  0  0  0  0  0  0  0  0  0
   15.7543    9.6270    2.1363 N   0  0  0  0  0  0  0  0  0  0  0  0
   17.1530   10.0054    1.8877 C   0  0  0  0  0  0  0  0  0  0  0  0
   15.4151    9.6164    3.5861 C   0  0  2  0  0  0  0  0  0  0  0  0
   14.9983   10.9780    4.1430 C   0  0  0  0  0  0  0  0  0  0  0  0
   13.6748   11.4984    3.5485 C   0  0  0  0  0  0  0  0  0  0  0  0
   12.4801   10.5506    3.7210 C   0  0  0  0  0  0  0  0  0  0  0  0
   13.3313   12.8332    4.2055 C   0  0  0  0  0  0  0  0  0  0  0  0
   16.5388    9.0259    4.4729 C   0  0  0  0  0  0  0  0  0  0  0  0
   17.6100    9.6017    4.6847 O   0  0  0  0  0  0  0  0  0  0  0  0
   16.3963    7.7647    4.9538 N   0  0  0  0  0  0  0  0  0  0  0  0
   15.1691    6.9964    4.9939 C   0  0  1  0  0  0  0  0  0  0  0  0
   15.5037    5.5716    4.6833 C   0  0  0  0  0  0  0  0  0  0  0  0
   14.2959    7.5064    6.1805 C   0  0  0  0  0  0  0  0  0  0  0  0
   13.6807    8.5773    6.0388 O   0  0  0  0  0  0  0  0  0  0  0  0
   14.1983    6.9993    7.4324 N   0  0  0  0  0  0  0  0  0  0  0  0
   14.6595    5.7430    8.0178 C   0  0  2  0  0  0  0  0  0  0  0  0
   13.7808    5.4970    9.1384 O   0  0  0  0  0  0  0  0  0  0  0  0
   16.0476    5.8872    8.6770 C   0  0  0  0  0  0  0  0  0  0  0  0
   17.2076    6.2330    7.7607 C   0  0  0  0  0  0  0  0  0  0  0  0
   16.0248    6.9567    9.7991 C   0  0  0  0  0  0  0  0  0  0  0  0
   14.1300    4.6404    7.0203 C   0  0  0  0  0  0  0  0  0  0  0  0
   13.1815    4.9872    6.2894 O   0  0  0  0  0  0  0  0  0  0  0  0
   14.5758    3.3288    6.9507 N   0  0  0  0  0  0  0  0  0  0  0  0
   15.8816    2.9078    7.4387 C   0  0  0  0  0  0  0  0  0  0  0  0
   13.9614    2.4272    5.9246 C   0  0  1  0  0  0  0  0  0  0  0  0
   12.4289    2.5246    5.7718 C   0  0  0  0  0  0  0  0  0  0  0  0
   11.4982    2.2474    6.9732 C   0  0  0  0  0  0  0  0  0  0  0  0
   11.7730    3.0174    8.2587 C   0  0  0  0  0  0  0  0  0  0  0  0
   10.0537    2.5535    6.5408 C   0  0  0  0  0  0  0  0  0  0  0  0
   14.8408    2.4863    4.6186 C   0  0  0  0  0  0  0  0  0  0  0  0
   16.0727    2.3426    4.6929 O   0  0  0  0  0  0  0  0  0  0  0  0
   14.4058    2.7422    3.3589 N   0  0  0  0  0  0  0  0  0  0  0  0
   13.1044    2.5347    2.7641 C   0  0  1  0  0  0  0  0  0  0  0  0
   13.0210    3.1668    1.3893 C   0  0  0  0  0  0  0  0  0  0  0  0
   13.4870    4.5687    1.0398 C   0  0  0  0  0  0  0  0  0  0  0  0
   14.9753    4.8140    1.1522 C   0  0  0  0  0  0  0  0  0  0  0  0
   13.1309    4.6813   -0.4342 C   0  0  0  0  0  0  0  0  0  0  0  0
   12.9282    0.9630    2.6903 C   0  0  0  0  0  0  0  0  0  0  0  0
   13.7894    0.2291    3.1966 O   0  0  0  0  0  0  0  0  0  0  0  0
   11.7591    0.4335    2.1640 N   0  0  0  0  0  0  0  0  0  0  0  0
   11.3549    0.8963    0.8545 C   0  0  0  0  0  0  0  0  0  0  0  0
   11.3371   -0.9778    2.4310 C   0  0  1  0  0  0  0  0  0  0  0  0
   11.6571   -1.5784    3.8345 C   0  0  0  0  0  0  0  0  0  0  0  0
   11.0310   -0.9133    5.0488 C   0  0  0  0  0  0  0  0  0  0  0  0
   11.4362   -3.0871    3.9137 C   0  0  0  0  0  0  0  0  0  0  0  0
    9.8832   -1.1827    1.8062 C   0  0  0  0  0  0  0  0  0  0  0  0
    9.6716   -2.1707    1.0952 O   0  0  0  0  0  0  0  0  0  0  0  0
    8.9935   -0.0743    1.8626 N   0  0  0  0  0  0  0  0  0  0  0  0
    8.7457    0.4821    3.1886 C   0  0  0  0  0  0  0  0  0  0  0  0
    0.6136    0.5230   -0.6241 H   0  0  0  0  0  0  0  0  0  0  0  0
    1.7779   -0.6376   -1.2787 H   0  0  0  0  0  0  0  0  0  0  0  0
    1.9414    1.1071   -1.6318 H   0  0  0  0  0  0  0  0  0  0  0  0
    2.0033    1.0024    1.2109 H   0  0  0  0  0  0  0  0  0  0  0  0
    4.3222   -0.1482   -0.4523 H   0  0  0  0  0  0  0  0  0  0  0  0
    4.0114    1.0023    2.4079 H   0  0  0  0  0  0  0  0  0  0  0  0
    5.3373    1.4173    1.3592 H   0  0  0  0  0  0  0  0  0  0  0  0
    5.8468   -0.1820    3.1926 H   0  0  0  0  0  0  0  0  0  0  0  0
    4.3634   -2.4454    1.8459 H   0  0  0  0  0  0  0  0  0  0  0  0
    3.4795   -1.3247    2.8925 H   0  0  0  0  0  0  0  0  0  0  0  0
    4.8396   -2.2278    3.5373 H   0  0  0  0  0  0  0  0  0  0  0  0
    6.3121   -1.6845    0.5721 H   0  0  0  0  0  0  0  0  0  0  0  0
    6.7104   -2.8863    2.3233 H   0  0  0  0  0  0  0  0  0  0  0  0
    7.3938    0.9482    1.0750 H   0  0  0  0  0  0  0  0  0  0  0  0
    8.3992    0.4297   -2.4850 H   0  0  0  0  0  0  0  0  0  0  0  0
   10.1770    2.1859   -0.9101 H   0  0  0  0  0  0  0  0  0  0  0  0
   11.5530    0.2881   -1.8211 H   0  0  0  0  0  0  0  0  0  0  0  0
   10.5221    0.8504   -4.6371 H   0  0  0  0  0  0  0  0  0  0  0  0
   10.1497   -0.5955   -3.6600 H   0  0  0  0  0  0  0  0  0  0  0  0
   11.8048   -0.2328   -4.1782 H   0  0  0  0  0  0  0  0  0  0  0  0
   12.2694    2.0464   -3.7668 H   0  0  0  0  0  0  0  0  0  0  0  0
   10.0985    4.3423   -1.4330 H   0  0  0  0  0  0  0  0  0  0  0  0
   11.0395    4.8833   -4.2041 H   0  0  0  0  0  0  0  0  0  0  0  0
   12.0376    4.1815   -2.9530 H   0  0  0  0  0  0  0  0  0  0  0  0
    9.4351    6.8385   -2.9574 H   0  0  0  0  0  0  0  0  0  0  0  0
    9.4929    8.2604   -1.9201 H   0  0  0  0  0  0  0  0  0  0  0  0
    9.0754    6.6419   -1.2349 H   0  0  0  0  0  0  0  0  0  0  0  0
   12.7144    7.2042   -0.4038 H   0  0  0  0  0  0  0  0  0  0  0  0
   10.9968    6.8139    1.1336 H   0  0  0  0  0  0  0  0  0  0  0  0
   11.7584    8.3540    1.4676 H   0  0  0  0  0  0  0  0  0  0  0  0
    8.9585    7.9736    0.3132 H   0  0  0  0  0  0  0  0  0  0  0  0
    9.8725    8.8027    3.0842 H   0  0  0  0  0  0  0  0  0  0  0  0
    9.0480    7.3001    2.6203 H   0  0  0  0  0  0  0  0  0  0  0  0
    8.2078    8.8445    2.4787 H   0  0  0  0  0  0  0  0  0  0  0  0
   10.3930   10.5597    1.0748 H   0  0  0  0  0  0  0  0  0  0  0  0
    8.6627   10.4016    0.7248 H   0  0  0  0  0  0  0  0  0  0  0  0
    9.8241   10.1047   -0.5441 H   0  0  0  0  0  0  0  0  0  0  0  0
   13.6787   10.5983   -0.9140 H   0  0  0  0  0  0  0  0  0  0  0  0
   14.7730    7.9516   -0.6519 H   0  0  0  0  0  0  0  0  0  0  0  0
   16.9210    9.1078   -0.6201 H   0  0  0  0  0  0  0  0  0  0  0  0
   16.0668   10.6806   -0.4736 H   0  0  0  0  0  0  0  0  0  0  0  0
   15.1565   10.3709   -2.7471 H   0  0  0  0  0  0  0  0  0  0  0  0
   18.2066   10.2294   -2.4076 H   0  0  0  0  0  0  0  0  0  0  0  0
   17.2111   11.6837   -2.2756 H   0  0  0  0  0  0  0  0  0  0  0  0
   17.3645   10.8605   -3.8350 H   0  0  0  0  0  0  0  0  0  0  0  0
   17.0330    7.9407   -2.8285 H   0  0  0  0  0  0  0  0  0  0  0  0
   16.2012    8.6547   -4.2196 H   0  0  0  0  0  0  0  0  0  0  0  0
   15.2660    7.8840   -2.9336 H   0  0  0  0  0  0  0  0  0  0  0  0
   17.4075   10.2666    0.8739 H   0  0  0  0  0  0  0  0  0  0  0  0
   17.7972    9.1613    2.1604 H   0  0  0  0  0  0  0  0  0  0  0  0
   17.4064   10.8820    2.4913 H   0  0  0  0  0  0  0  0  0  0  0  0
   14.5355    9.0109    3.7119 H   0  0  0  0  0  0  0  0  0  0  0  0
   14.8895   10.8931    5.2338 H   0  0  0  0  0  0  0  0  0  0  0  0
   15.7955   11.7127    3.9785 H   0  0  0  0  0  0  0  0  0  0  0  0
   13.8255   11.6634    2.4751 H   0  0  0  0  0  0  0  0  0  0  0  0
   12.2214   10.4175    4.7764 H   0  0  0  0  0  0  0  0  0  0  0  0
   12.6513    9.5619    3.2915 H   0  0  0  0  0  0  0  0  0  0  0  0
   11.6007   10.9556    3.2109 H   0  0  0  0  0  0  0  0  0  0  0  0
   13.1066   12.6977    5.2701 H   0  0  0  0  0  0  0  0  0  0  0  0
   12.4547   13.2809    3.7283 H   0  0  0  0  0  0  0  0  0  0  0  0
   14.1647   13.5368    4.1224 H   0  0  0  0  0  0  0  0  0  0  0  0
   17.2155    7.4239    5.4360 H   0  0  0  0  0  0  0  0  0  0  0  0
   14.5539    7.2449    4.1301 H   0  0  0  0  0  0  0  0  0  0  0  0
   15.9938    5.0465    5.4882 H   0  0  0  0  0  0  0  0  0  0  0  0
   16.2044    5.5163    3.8445 H   0  0  0  0  0  0  0  0  0  0  0  0
   14.5916    5.0541    4.3843 H   0  0  0  0  0  0  0  0  0  0  0  0
   13.4889    7.5212    7.9243 H   0  0  0  0  0  0  0  0  0  0  0  0
   13.2914    6.3113    9.3165 H   0  0  0  0  0  0  0  0  0  0  0  0
   16.2958    4.9622    9.1996 H   0  0  0  0  0  0  0  0  0  0  0  0
   17.1216    7.2631    7.4105 H   0  0  0  0  0  0  0  0  0  0  0  0
   17.2941    5.5546    6.9165 H   0  0  0  0  0  0  0  0  0  0  0  0
   18.1554    6.1684    8.3050 H   0  0  0  0  0  0  0  0  0  0  0  0
   15.7161    7.9361    9.4165 H   0  0  0  0  0  0  0  0  0  0  0  0
   17.0182    7.0721   10.2444 H   0  0  0  0  0  0  0  0  0  0  0  0
   15.3419    6.6774   10.6078 H   0  0  0  0  0  0  0  0  0  0  0  0
   16.0188    3.1989    8.4729 H   0  0  0  0  0  0  0  0  0  0  0  0
   16.6663    3.3591    6.8238 H   0  0  0  0  0  0  0  0  0  0  0  0
   15.9763    1.8193    7.3892 H   0  0  0  0  0  0  0  0  0  0  0  0
   14.1287    1.4058    6.2948 H   0  0  0  0  0  0  0  0  0  0  0  0
   12.1585    1.7739    5.0343 H   0  0  0  0  0  0  0  0  0  0  0  0
   12.1265    3.4645    5.3035 H   0  0  0  0  0  0  0  0  0  0  0  0
   11.5700    1.1798    7.2111 H   0  0  0  0  0  0  0  0  0  0  0  0
   11.6358    4.0946    8.1185 H   0  0  0  0  0  0  0  0  0  0  0  0
   12.7740    2.8209    8.6463 H   0  0  0  0  0  0  0  0  0  0  0  0
   11.0728    2.7094    9.0415 H   0  0  0  0  0  0  0  0  0  0  0  0
    9.9461    3.6043    6.2433 H   0  0  0  0  0  0  0  0  0  0  0  0
    9.3471    2.3610    7.3532 H   0  0  0  0  0  0  0  0  0  0  0  0
    9.7560    1.9399    5.6876 H   0  0  0  0  0  0  0  0  0  0  0  0
   15.1818    2.5878    2.7243 H   0  0  0  0  0  0  0  0  0  0  0  0
   12.3167    2.9725    3.3705 H   0  0  0  0  0  0  0  0  0  0  0  0
   11.9546    3.1857    1.1341 H   0  0  0  0  0  0  0  0  0  0  0  0
   13.5539    2.5001    0.7035 H   0  0  0  0  0  0  0  0  0  0  0  0
   12.9349    5.3201    1.6175 H   0  0  0  0  0  0  0  0  0  0  0  0
   15.5516    3.9983    0.7101 H   0  0  0  0  0  0  0  0  0  0  0  0
   15.2584    4.9195    2.1885 H   0  0  0  0  0  0  0  0  0  0  0  0
   15.2591    5.7430    0.6467 H   0  0  0  0  0  0  0  0  0  0  0  0
   13.4289    3.7978   -1.0088 H   0  0  0  0  0  0  0  0  0  0  0  0
   13.6330    5.5237   -0.9009 H   0  0  0  0  0  0  0  0  0  0  0  0
   12.0450    4.7702   -0.5127 H   0  0  0  0  0  0  0  0  0  0  0  0
   12.1798    1.2647    0.2584 H   0  0  0  0  0  0  0  0  0  0  0  0
   10.5748    1.6482    0.9967 H   0  0  0  0  0  0  0  0  0  0  0  0
   10.9762    0.0802    0.2379 H   0  0  0  0  0  0  0  0  0  0  0  0
   11.9868   -1.5439    1.7437 H   0  0  0  0  0  0  0  0  0  0  0  0
   12.7367   -1.4828    3.9832 H   0  0  0  0  0  0  0  0  0  0  0  0
   10.0074   -1.2459    5.2297 H   0  0  0  0  0  0  0  0  0  0  0  0
   11.0304    0.1641    4.9470 H   0  0  0  0  0  0  0  0  0  0  0  0
   11.6145   -1.1452    5.9493 H   0  0  0  0  0  0  0  0  0  0  0  0
   10.3743   -3.3400    3.9523 H   0  0  0  0  0  0  0  0  0  0  0  0
   11.9109   -3.4798    4.8227 H   0  0  0  0  0  0  0  0  0  0  0  0
   11.8982   -3.5967    3.0633 H   0  0  0  0  0  0  0  0  0  0  0  0
    9.6440    0.9734    3.5564 H   0  0  0  0  0  0  0  0  0  0  0  0
    8.4566   -0.3166    3.8753 H   0  0  0  0  0  0  0  0  0  0  0  0
    7.9509    1.2332    3.1609 H   0  0  0  0  0  0  0  0  0  0  0  0
  1  2  1  0  0  0  0
  1 89  1  0  0  0  0
  1 90  1  0  0  0  0
  1 91  1  0  0  0  0
  2  3  2  0  0  0  0
  2 92  1  0  0  0  0
  3  4  1  0  0  0  0
  3 93  1  0  0  0  0
  4  5  1  0  0  0  0
  4 94  1  0  0  0  0
  4 95  1  0  0  0  0
  5  6  1  0  0  0  0
  5  7  1  0  0  0  0
  5 96  1  1  0  0  0
  6 97  1  0  0  0  0
  6 98  1  0  0  0  0
  6 99  1  0  0  0  0
  7  8  1  0  0  0  0
  7100  1  1  0  0  0
  8101  1  0  0  0  0
  9 10  1  0  0  0  0
  9 87  1  0  0  0  0
  9  7  1  0  0  0  0
  9102  1  6  0  0  0
 10 11  2  0  0  0  0
 10 12  1  0  0  0  0
 12 13  1  0  0  0  0
 12103  1  0  0  0  0
 13 14  1  0  0  0  0
 13 17  1  0  0  0  0
 13104  1  1  0  0  0
 14 15  1  0  0  0  0
 14 16  1  0  0  0  0
 14105  1  1  0  0  0
 15106  1  0  0  0  0
 15107  1  0  0  0  0
 15108  1  0  0  0  0
 16109  1  0  0  0  0
 17 18  2  0  0  0  0
 17 19  1  0  0  0  0
 19 20  1  0  0  0  0
 19110  1  0  0  0  0
 20 21  1  0  0  0  0
 20111  1  0  0  0  0
 20112  1  0  0  0  0
 21 22  2  0  0  0  0
 21 23  1  0  0  0  0
 23 24  1  0  0  0  0
 23 25  1  0  0  0  0
 24113  1  0  0  0  0
 24114  1  0  0  0  0
 24115  1  0  0  0  0
 25 30  1  0  0  0  0
 25 26  1  0  0  0  0
 25116  1  1  0  0  0
 26 27  1  0  0  0  0
 26117  1  0  0  0  0
 26118  1  0  0  0  0
 27 28  1  0  0  0  0
 27 29  1  0  0  0  0
 27119  1  0  0  0  0
 28120  1  0  0  0  0
 28121  1  0  0  0  0
 28122  1  0  0  0  0
 29123  1  0  0  0  0
 29124  1  0  0  0  0
 29125  1  0  0  0  0
 30 31  2  0  0  0  0
 30 32  1  0  0  0  0
 32 33  1  0  0  0  0
 32126  1  0  0  0  0
 33 34  1  0  0  0  0
 33 38  1  0  0  0  0
 33127  1  6  0  0  0
 34 35  1  0  0  0  0
 34128  1  0  0  0  0
 34129  1  0  0  0  0
 35 36  1  0  0  0  0
 35 37  1  0  0  0  0
 35130  1  0  0  0  0
 36131  1  0  0  0  0
 36132  1  0  0  0  0
 36133  1  0  0  0  0
 37134  1  0  0  0  0
 37135  1  0  0  0  0
 37136  1  0  0  0  0
 38 39  2  0  0  0  0
 38 40  1  0  0  0  0
 40 41  1  0  0  0  0
 40 42  1  0  0  0  0
 41137  1  0  0  0  0
 41138  1  0  0  0  0
 41139  1  0  0  0  0
 42 47  1  0  0  0  0
 42 43  1  0  0  0  0
 42140  1  1  0  0  0
 43 44  1  0  0  0  0
 43141  1  0  0  0  0
 43142  1  0  0  0  0
 44 45  1  0  0  0  0
 44 46  1  0  0  0  0
 44143  1  0  0  0  0
 45144  1  0  0  0  0
 45145  1  0  0  0  0
 45146  1  0  0  0  0
 46147  1  0  0  0  0
 46148  1  0  0  0  0
 46149  1  0  0  0  0
 47 48  2  0  0  0  0
 47 49  1  0  0  0  0
 49 50  1  0  0  0  0
 49150  1  0  0  0  0
 50 51  1  0  0  0  0
 50 52  1  0  0  0  0
 50151  1  6  0  0  0
 51152  1  0  0  0  0
 51153  1  0  0  0  0
 51154  1  0  0  0  0
 52 53  2  0  0  0  0
 52 54  1  0  0  0  0
 54 55  1  0  0  0  0
 54155  1  0  0  0  0
 55 56  1  1  0  0  0
 55 57  1  0  0  0  0
 55 60  1  0  0  0  0
 56156  1  0  0  0  0
 57 58  1  0  0  0  0
 57 59  1  0  0  0  0
 57157  1  0  0  0  0
 58158  1  0  0  0  0
 58159  1  0  0  0  0
 58160  1  0  0  0  0
 59161  1  0  0  0  0
 59162  1  0  0  0  0
 59163  1  0  0  0  0
 60 61  2  0  0  0  0
 60 62  1  0  0  0  0
 62 63  1  0  0  0  0
 62 64  1  0  0  0  0
 63164  1  0  0  0  0
 63165  1  0  0  0  0
 63166  1  0  0  0  0
 64 65  1  0  0  0  0
 64 69  1  0  0  0  0
 64167  1  1  0  0  0
 65 66  1  0  0  0  0
 65168  1  0  0  0  0
 65169  1  0  0  0  0
 66 67  1  0  0  0  0
 66 68  1  0  0  0  0
 66170  1  0  0  0  0
 67171  1  0  0  0  0
 67172  1  0  0  0  0
 67173  1  0  0  0  0
 68174  1  0  0  0  0
 68175  1  0  0  0  0
 68176  1  0  0  0  0
 69 70  2  0  0  0  0
 69 71  1  0  0  0  0
 71 72  1  0  0  0  0
 71177  1  0  0  0  0
 72 73  1  0  0  0  0
 72 77  1  0  0  0  0
 72178  1  1  0  0  0
 73 74  1  0  0  0  0
 73179  1  0  0  0  0
 73180  1  0  0  0  0
 74 75  1  0  0  0  0
 74 76  1  0  0  0  0
 74181  1  0  0  0  0
 75182  1  0  0  0  0
 75183  1  0  0  0  0
 75184  1  0  0  0  0
 76185  1  0  0  0  0
 76186  1  0  0  0  0
 76187  1  0  0  0  0
 77 78  2  0  0  0  0
 77 79  1  0  0  0  0
 79 80  1  0  0  0  0
 79 81  1  0  0  0  0
 80188  1  0  0  0  0
 80189  1  0  0  0  0
 80190  1  0  0  0  0
 81 82  1  0  0  0  0
 81 85  1  0  0  0  0
 81191  1  6  0  0  0
 82 83  1  0  0  0  0
 82 84  1  0  0  0  0
 82192  1  0  0  0  0
 83193  1  0  0  0  0
 83194  1  0  0  0  0
 83195  1  0  0  0  0
 84196  1  0  0  0  0
 84197  1  0  0  0  0
 84198  1  0  0  0  0
 85 86  2  0  0  0  0
 85 87  1  0  0  0  0
 87 88  1  0  0  0  0
 88199  1  0  0  0  0
 88200  1  0  0  0  0
 88201  1  0  0  0  0
M  END
>  <Energy>
529.562

$$$$