
 OpenBabel03292020543D

171174  0  0  1  0  0  0  0  0999 V2000
    5.9641   -5.6888    2.3975 C   0  0  0  0  0  0  0  0  0  0  0  0
    6.1318   -5.8161    0.8728 C   0  0  0  0  0  0  0  0  0  0  0  0
    4.7707   -5.9042    0.1232 C   0  0  2  0  0  0  0  0  0  0  0  0
    4.2421   -4.4358   -0.0590 C   0  0  0  0  0  0  0  0  0  0  0  0
    4.4431   -6.9623   -1.1438 C   0  0  2  0  0  0  0  0  0  0  0  0
    5.1975   -8.2755   -1.5446 N   0  0  0  0  0  0  0  0  0  0  0  0
    4.7814   -9.0637   -2.6826 C   0  0  0  0  0  0  0  0  0  0  0  0
    4.3237   -8.4572   -3.6573 O   0  0  0  0  0  0  0  0  0  0  0  0
    4.9540  -10.7544   -2.8324 C   0  0  2  0  0  0  0  0  0  0  0  0
    6.1523  -11.1381   -3.7317 C   0  0  0  0  0  0  0  0  0  0  0  0
    5.5715  -11.7126   -5.0355 C   0  0  0  0  0  0  0  0  0  0  0  0
    4.1320  -11.2455   -5.0063 C   0  0  0  0  0  0  0  0  0  0  0  0
    3.8403  -11.4798   -3.6005 N   0  0  0  0  0  0  0  0  0  0  0  0
    3.3309  -12.8168   -3.4782 C   0  0  0  0  0  0  0  0  0  0  0  0
    2.4109  -13.1877   -4.2082 O   0  0  0  0  0  0  0  0  0  0  0  0
    3.9137  -13.8179   -2.4573 C   0  0  2  0  0  0  0  0  0  0  0  0
    3.4947  -15.3246   -2.6163 C   0  0  0  0  0  0  0  0  0  0  0  0
    4.4005  -16.3950   -3.2230 C   0  0  0  0  0  0  0  0  0  0  0  0
    5.5997  -16.7931   -2.6053 C   0  0  0  0  0  0  0  0  0  0  0  0
    6.2809  -17.9494   -3.0303 C   0  0  0  0  0  0  0  0  0  0  0  0
    5.7809  -18.7271   -4.0698 C   0  0  0  0  0  0  0  0  0  0  0  0
    4.6075  -18.3397   -4.7055 C   0  0  0  0  0  0  0  0  0  0  0  0
    3.9271  -17.1862   -4.2867 C   0  0  0  0  0  0  0  0  0  0  0  0
    3.4630  -13.3295   -1.1701 N   0  0  0  0  0  0  0  0  0  0  0  0
    2.0085  -13.1835   -0.9333 C   0  0  0  0  0  0  0  0  0  0  0  0
    4.4253  -13.1575   -0.1898 C   0  0  0  0  0  0  0  0  0  0  0  0
    5.5037  -13.7507   -0.3287 O   0  0  0  0  0  0  0  0  0  0  0  0
    4.2197  -12.1464    0.9167 C   0  0  2  0  0  0  0  0  0  0  0  0
    3.8825  -10.7743    0.3110 C   0  0  0  0  0  0  0  0  0  0  0  0
    3.1894   -9.7178    1.1249 C   0  0  0  0  0  0  0  0  0  0  0  0
    3.8198   -9.1236    2.2216 C   0  0  0  0  0  0  0  0  0  0  0  0
    3.2527   -8.0065    2.8369 C   0  0  0  0  0  0  0  0  0  0  0  0
    2.0740   -7.4479    2.3447 C   0  0  0  0  0  0  0  0  0  0  0  0
    1.4385   -8.0260    1.2516 C   0  0  0  0  0  0  0  0  0  0  0  0
    1.9847   -9.1633    0.6535 C   0  0  0  0  0  0  0  0  0  0  0  0
    5.4165  -12.0981    1.7976 N   0  0  0  0  0  0  0  0  0  0  0  0
    6.6849  -11.6209    1.6382 C   0  0  0  0  0  0  0  0  0  0  0  0
    7.1178  -11.1324    2.6850 O   0  0  0  0  0  0  0  0  0  0  0  0
    7.6028  -11.7139    0.3349 C   0  0  2  0  0  0  0  0  0  0  0  0
    8.5889  -12.9568    0.3635 C   0  0  0  0  0  0  0  0  0  0  0  0
    9.5545  -12.9713   -0.8364 C   0  0  0  0  0  0  0  0  0  0  0  0
    7.9600  -14.3475    0.4439 C   0  0  0  0  0  0  0  0  0  0  0  0
    8.4683  -10.4345    0.2172 N   0  0  0  0  0  0  0  0  0  0  0  0
    9.3184  -10.1706    1.3737 C   0  0  0  0  0  0  0  0  0  0  0  0
    8.6763   -9.8525   -1.0404 C   0  0  0  0  0  0  0  0  0  0  0  0
    8.0895  -10.3602   -2.0087 O   0  0  0  0  0  0  0  0  0  0  0  0
    9.5173   -8.5373   -1.3849 C   0  0  1  0  0  0  0  0  0  0  0  0
   10.5407   -7.9953   -0.3659 C   0  0  1  0  0  0  0  0  0  0  0  0
   11.8680   -8.7551   -0.3721 C   0  0  0  0  0  0  0  0  0  0  0  0
   10.7747   -6.4694   -0.4273 C   0  0  0  0  0  0  0  0  0  0  0  0
   11.3875   -5.9419    0.8745 C   0  0  0  0  0  0  0  0  0  0  0  0
   10.0583   -8.8058   -2.7409 O   0  0  0  0  0  0  0  0  0  0  0  0
   10.1278   -7.8376   -3.7109 C   0  0  0  0  0  0  0  0  0  0  0  0
   10.8242   -6.8384   -3.5851 O   0  0  0  0  0  0  0  0  0  0  0  0
    9.1551   -8.0838   -4.9389 C   0  0  2  0  0  0  0  0  0  0  0  0
    9.3264   -9.4440   -5.6983 C   0  0  0  0  0  0  0  0  0  0  0  0
    8.0739   -9.7959   -6.5094 C   0  0  0  0  0  0  0  0  0  0  0  0
   10.5057   -9.5138   -6.6597 C   0  0  0  0  0  0  0  0  0  0  0  0
    9.5220  -10.5293   -4.7701 O   0  0  0  0  0  0  0  0  0  0  0  0
    8.8919   -6.8303   -5.8063 N   0  0  0  0  0  0  0  0  0  0  0  0
   10.0223   -6.1934   -6.4470 C   0  0  0  0  0  0  0  0  0  0  0  0
    7.5838   -6.4430   -6.1008 C   0  0  0  0  0  0  0  0  0  0  0  0
    6.7133   -7.3268   -6.0936 O   0  0  0  0  0  0  0  0  0  0  0  0
    7.1201   -4.9787   -6.5379 C   0  0  2  0  0  0  0  0  0  0  0  0
    7.5556   -3.5429   -6.1115 C   0  0  0  0  0  0  0  0  0  0  0  0
    8.8826   -3.2473   -5.4060 C   0  0  0  0  0  0  0  0  0  0  0  0
    9.9358   -2.8234   -6.4285 C   0  0  0  0  0  0  0  0  0  0  0  0
    8.7216   -2.0870   -4.4042 C   0  0  0  0  0  0  0  0  0  0  0  0
    5.6182   -4.9582   -6.4308 N   0  0  0  0  0  0  0  0  0  0  0  0
    4.7408   -4.7855   -5.3868 C   0  0  0  0  0  0  0  0  0  0  0  0
    3.6712   -4.2777   -5.7493 O   0  0  0  0  0  0  0  0  0  0  0  0
    4.9799   -5.3024   -3.8797 C   0  0  1  0  0  0  0  0  0  0  0  0
    6.4145   -5.0217   -3.3387 C   0  0  0  0  0  0  0  0  0  0  0  0
    6.8169   -4.2453   -2.1043 C   0  0  0  0  0  0  0  0  0  0  0  0
    7.1677   -6.3228   -3.1887 C   0  0  0  0  0  0  0  0  0  0  0  0
    3.8622   -5.1615   -2.8900 N   0  0  0  0  0  0  0  0  0  0  0  0
    2.6910   -4.3866   -3.3065 C   0  0  0  0  0  0  0  0  0  0  0  0
    3.4579   -6.2927   -2.1481 C   0  0  0  0  0  0  0  0  0  0  0  0
    2.2755   -6.6676   -2.1266 O   0  0  0  0  0  0  0  0  0  0  0  0
    6.8601   -5.2511    2.8543 H   0  0  0  0  0  0  0  0  0  0  0  0
    5.8112   -6.6691    2.8491 H   0  0  0  0  0  0  0  0  0  0  0  0
    5.1217   -5.0425    2.6737 H   0  0  0  0  0  0  0  0  0  0  0  0
    6.7960   -6.6456    0.6293 H   0  0  0  0  0  0  0  0  0  0  0  0
    6.6556   -4.8845    0.6208 H   0  0  0  0  0  0  0  0  0  0  0  0
    4.0850   -6.2637    0.8952 H   0  0  0  0  0  0  0  0  0  0  0  0
    4.7647   -3.8726   -0.8286 H   0  0  0  0  0  0  0  0  0  0  0  0
    4.3659   -3.8404    0.8549 H   0  0  0  0  0  0  0  0  0  0  0  0
    3.1773   -4.4032   -0.3007 H   0  0  0  0  0  0  0  0  0  0  0  0
    3.6899   -7.5245   -0.5795 H   0  0  0  0  0  0  0  0  0  0  0  0
    5.5622   -8.7776   -0.7536 H   0  0  0  0  0  0  0  0  0  0  0  0
    5.0884  -11.1985   -1.8545 H   0  0  0  0  0  0  0  0  0  0  0  0
    6.7572  -11.9226   -3.2577 H   0  0  0  0  0  0  0  0  0  0  0  0
    6.7758  -10.2717   -3.9325 H   0  0  0  0  0  0  0  0  0  0  0  0
    5.6171  -12.8109   -4.9908 H   0  0  0  0  0  0  0  0  0  0  0  0
    6.0949  -11.4312   -5.9440 H   0  0  0  0  0  0  0  0  0  0  0  0
    3.5136  -11.8137   -5.7071 H   0  0  0  0  0  0  0  0  0  0  0  0
    4.0362  -10.1845   -5.2498 H   0  0  0  0  0  0  0  0  0  0  0  0
    5.0177  -13.7593   -2.5548 H   0  0  0  0  0  0  0  0  0  0  0  0
    3.3028  -15.7237   -1.6047 H   0  0  0  0  0  0  0  0  0  0  0  0
    2.5180  -15.3813   -3.1133 H   0  0  0  0  0  0  0  0  0  0  0  0
    5.9848  -16.2489   -1.7446 H   0  0  0  0  0  0  0  0  0  0  0  0
    7.1883  -18.2650   -2.5147 H   0  0  0  0  0  0  0  0  0  0  0  0
    6.2929  -19.6355   -4.3724 H   0  0  0  0  0  0  0  0  0  0  0  0
    4.1966  -18.9517   -5.5046 H   0  0  0  0  0  0  0  0  0  0  0  0
    2.9813  -16.9402   -4.7698 H   0  0  0  0  0  0  0  0  0  0  0  0
    1.4947  -14.0909   -1.2744 H   0  0  0  0  0  0  0  0  0  0  0  0
    1.6339  -12.3220   -1.4909 H   0  0  0  0  0  0  0  0  0  0  0  0
    1.7866  -13.0471    0.1266 H   0  0  0  0  0  0  0  0  0  0  0  0
    3.4029  -12.5011    1.5478 H   0  0  0  0  0  0  0  0  0  0  0  0
    4.8265  -10.3388   -0.0056 H   0  0  0  0  0  0  0  0  0  0  0  0
    3.2903  -10.8960   -0.5943 H   0  0  0  0  0  0  0  0  0  0  0  0
    4.7884   -9.4751    2.5688 H   0  0  0  0  0  0  0  0  0  0  0  0
    3.7681   -7.5280    3.6660 H   0  0  0  0  0  0  0  0  0  0  0  0
    1.6775   -6.5358    2.7832 H   0  0  0  0  0  0  0  0  0  0  0  0
    0.5496   -7.5637    0.8268 H   0  0  0  0  0  0  0  0  0  0  0  0
    1.4994   -9.5494   -0.2434 H   0  0  0  0  0  0  0  0  0  0  0  0
    5.1604  -11.9476    2.7694 H   0  0  0  0  0  0  0  0  0  0  0  0
    6.9580  -11.7686   -0.5398 H   0  0  0  0  0  0  0  0  0  0  0  0
    9.2032  -12.8791    1.2669 H   0  0  0  0  0  0  0  0  0  0  0  0
    9.0087  -12.9492   -1.7861 H   0  0  0  0  0  0  0  0  0  0  0  0
   10.1709  -13.8776   -0.8300 H   0  0  0  0  0  0  0  0  0  0  0  0
   10.2466  -12.1256   -0.8107 H   0  0  0  0  0  0  0  0  0  0  0  0
    7.5625  -14.6622   -0.5245 H   0  0  0  0  0  0  0  0  0  0  0  0
    7.1896  -14.4085    1.2169 H   0  0  0  0  0  0  0  0  0  0  0  0
    8.7232  -15.0910    0.7072 H   0  0  0  0  0  0  0  0  0  0  0  0
    9.2788  -10.9672    2.1177 H   0  0  0  0  0  0  0  0  0  0  0  0
    8.9940   -9.2455    1.8534 H   0  0  0  0  0  0  0  0  0  0  0  0
   10.3606  -10.1464    1.0710 H   0  0  0  0  0  0  0  0  0  0  0  0
    8.7453   -7.7748   -1.5017 H   0  0  0  0  0  0  0  0  0  0  0  0
   10.0820   -8.1048    0.6125 H   0  0  0  0  0  0  0  0  0  0  0  0
   12.5928   -8.3081   -1.0572 H   0  0  0  0  0  0  0  0  0  0  0  0
   11.7362   -9.8048   -0.6507 H   0  0  0  0  0  0  0  0  0  0  0  0
   12.3076   -8.7421    0.6332 H   0  0  0  0  0  0  0  0  0  0  0  0
    9.8200   -5.9514   -0.5797 H   0  0  0  0  0  0  0  0  0  0  0  0
   11.4316   -6.2038   -1.2594 H   0  0  0  0  0  0  0  0  0  0  0  0
   10.7369   -6.1574    1.7300 H   0  0  0  0  0  0  0  0  0  0  0  0
   11.5223   -4.8574    0.8248 H   0  0  0  0  0  0  0  0  0  0  0  0
   12.3648   -6.3926    1.0729 H   0  0  0  0  0  0  0  0  0  0  0  0
    8.2177   -8.2474   -4.4025 H   0  0  0  0  0  0  0  0  0  0  0  0
    8.0815  -10.8481   -6.8124 H   0  0  0  0  0  0  0  0  0  0  0  0
    7.9651   -9.1812   -7.4077 H   0  0  0  0  0  0  0  0  0  0  0  0
    7.1715   -9.6487   -5.9115 H   0  0  0  0  0  0  0  0  0  0  0  0
   10.6308  -10.5402   -7.0280 H   0  0  0  0  0  0  0  0  0  0  0  0
   11.4397   -9.2411   -6.1640 H   0  0  0  0  0  0  0  0  0  0  0  0
   10.3531   -8.8782   -7.5370 H   0  0  0  0  0  0  0  0  0  0  0  0
    8.9070  -10.4439   -4.0128 H   0  0  0  0  0  0  0  0  0  0  0  0
   10.7497   -6.9344   -6.7722 H   0  0  0  0  0  0  0  0  0  0  0  0
   10.5199   -5.5252   -5.7467 H   0  0  0  0  0  0  0  0  0  0  0  0
    9.6873   -5.6487   -7.3320 H   0  0  0  0  0  0  0  0  0  0  0  0
    7.2917   -5.0104   -7.6239 H   0  0  0  0  0  0  0  0  0  0  0  0
    7.5006   -2.9224   -7.0196 H   0  0  0  0  0  0  0  0  0  0  0  0
    6.7558   -3.0832   -5.5109 H   0  0  0  0  0  0  0  0  0  0  0  0
    9.2083   -4.1179   -4.8335 H   0  0  0  0  0  0  0  0  0  0  0  0
    9.6883   -1.8455   -6.8587 H   0  0  0  0  0  0  0  0  0  0  0  0
   10.0044   -3.5276   -7.2587 H   0  0  0  0  0  0  0  0  0  0  0  0
   10.9201   -2.7430   -5.9583 H   0  0  0  0  0  0  0  0  0  0  0  0
    8.3430   -1.1824   -4.8930 H   0  0  0  0  0  0  0  0  0  0  0  0
    9.6787   -1.8435   -3.9305 H   0  0  0  0  0  0  0  0  0  0  0  0
    8.0192   -2.3385   -3.6069 H   0  0  0  0  0  0  0  0  0  0  0  0
    5.1496   -4.6727   -7.2814 H   0  0  0  0  0  0  0  0  0  0  0  0
    4.9342   -6.3669   -4.0995 H   0  0  0  0  0  0  0  0  0  0  0  0
    6.9053   -4.4594   -4.1055 H   0  0  0  0  0  0  0  0  0  0  0  0
    6.6552   -4.8667   -1.2434 H   0  0  0  0  0  0  0  0  0  0  0  0
    6.3595   -3.2668   -1.9882 H   0  0  0  0  0  0  0  0  0  0  0  0
    7.9090   -4.0954   -2.0991 H   0  0  0  0  0  0  0  0  0  0  0  0
    7.0871   -6.7550   -2.1967 H   0  0  0  0  0  0  0  0  0  0  0  0
    8.2234   -6.1243   -3.3766 H   0  0  0  0  0  0  0  0  0  0  0  0
    6.7845   -7.0774   -3.8612 H   0  0  0  0  0  0  0  0  0  0  0  0
    2.1257   -4.9461   -4.0619 H   0  0  0  0  0  0  0  0  0  0  0  0
    2.9828   -3.3954   -3.6568 H   0  0  0  0  0  0  0  0  0  0  0  0
    2.0147   -4.2416   -2.4539 H   0  0  0  0  0  0  0  0  0  0  0  0
  1  2  1  0  0  0  0
  1 80  1  0  0  0  0
  1 81  1  0  0  0  0
  1 82  1  0  0  0  0
  2 83  1  0  0  0  0
  2 84  1  0  0  0  0
  3  4  1  0  0  0  0
  3  2  1  0  0  0  0
  3 85  1  6  0  0  0
  4 86  1  0  0  0  0
  4 87  1  0  0  0  0
  4 88  1  0  0  0  0
  5  6  1  0  0  0  0
  5 78  1  0  0  0  0
  5  3  1  0  0  0  0
  5 89  1  1  0  0  0
  6  7  1  0  0  0  0
  6 90  1  0  0  0  0
  7  8  2  0  0  0  0
  7  9  1  0  0  0  0
  9 10  1  0  0  0  0
  9 13  1  0  0  0  0
  9 91  1  1  0  0  0
 10 11  1  0  0  0  0
 10 92  1  0  0  0  0
 10 93  1  0  0  0  0
 11 12  1  0  0  0  0
 11 94  1  0  0  0  0
 11 95  1  0  0  0  0
 12 13  1  0  0  0  0
 12 96  1  0  0  0  0
 12 97  1  0  0  0  0
 13 14  1  0  0  0  0
 14 15  2  0  0  0  0
 14 16  1  0  0  0  0
 16 24  1  0  0  0  0
 16 17  1  0  0  0  0
 16 98  1  6  0  0  0
 17 18  1  0  0  0  0
 17 99  1  0  0  0  0
 17100  1  0  0  0  0
 18 19  1  0  0  0  0
 18 23  2  0  0  0  0
 19 20  2  0  0  0  0
 19101  1  0  0  0  0
 20 21  1  0  0  0  0
 20102  1  0  0  0  0
 21 22  2  0  0  0  0
 21103  1  0  0  0  0
 22 23  1  0  0  0  0
 22104  1  0  0  0  0
 23105  1  0  0  0  0
 24 25  1  0  0  0  0
 24 26  1  0  0  0  0
 25106  1  0  0  0  0
 25107  1  0  0  0  0
 25108  1  0  0  0  0
 26 27  2  0  0  0  0
 26 28  1  0  0  0  0
 28 36  1  0  0  0  0
 28 29  1  0  0  0  0
 28109  1  1  0  0  0
 29 30  1  0  0  0  0
 29110  1  0  0  0  0
 29111  1  0  0  0  0
 30 31  1  0  0  0  0
 30 35  2  0  0  0  0
 31 32  2  0  0  0  0
 31112  1  0  0  0  0
 32 33  1  0  0  0  0
 32113  1  0  0  0  0
 33 34  2  0  0  0  0
 33114  1  0  0  0  0
 34 35  1  0  0  0  0
 34115  1  0  0  0  0
 35116  1  0  0  0  0
 36 37  1  0  0  0  0
 36117  1  0  0  0  0
 37 38  2  0  0  0  0
 37 39  1  0  0  0  0
 39 43  1  0  0  0  0
 39 40  1  0  0  0  0
 39118  1  6  0  0  0
 40 41  1  0  0  0  0
 40 42  1  0  0  0  0
 40119  1  0  0  0  0
 41120  1  0  0  0  0
 41121  1  0  0  0  0
 41122  1  0  0  0  0
 42123  1  0  0  0  0
 42124  1  0  0  0  0
 42125  1  0  0  0  0
 43 44  1  0  0  0  0
 43 45  1  0  0  0  0
 44126  1  0  0  0  0
 44127  1  0  0  0  0
 44128  1  0  0  0  0
 45 46  2  0  0  0  0
 45 47  1  0  0  0  0
 47 48  1  0  0  0  0
 47 52  1  0  0  0  0
 47129  1  6  0  0  0
 48 49  1  0  0  0  0
 48 50  1  0  0  0  0
 48130  1  1  0  0  0
 49131  1  0  0  0  0
 49132  1  0  0  0  0
 49133  1  0  0  0  0
 50 51  1  0  0  0  0
 50134  1  0  0  0  0
 50135  1  0  0  0  0
 51136  1  0  0  0  0
 51137  1  0  0  0  0
 51138  1  0  0  0  0
 52 53  1  0  0  0  0
 53 54  2  0  0  0  0
 53 55  1  0  0  0  0
 55 60  1  0  0  0  0
 55 56  1  0  0  0  0
 55139  1  1  0  0  0
 56 57  1  0  0  0  0
 56 58  1  0  0  0  0
 56 59  1  0  0  0  0
 57140  1  0  0  0  0
 57141  1  0  0  0  0
 57142  1  0  0  0  0
 58143  1  0  0  0  0
 58144  1  0  0  0  0
 58145  1  0  0  0  0
 59146  1  0  0  0  0
 60 61  1  0  0  0  0
 60 62  1  0  0  0  0
 61147  1  0  0  0  0
 61148  1  0  0  0  0
 61149  1  0  0  0  0
 62 63  2  0  0  0  0
 62 64  1  0  0  0  0
 64 69  1  0  0  0  0
 64 65  1  0  0  0  0
 64150  1  6  0  0  0
 65 66  1  0  0  0  0
 65151  1  0  0  0  0
 65152  1  0  0  0  0
 66 67  1  0  0  0  0
 66 68  1  0  0  0  0
 66153  1  0  0  0  0
 67154  1  0  0  0  0
 67155  1  0  0  0  0
 67156  1  0  0  0  0
 68157  1  0  0  0  0
 68158  1  0  0  0  0
 68159  1  0  0  0  0
 69 70  1  0  0  0  0
 69160  1  0  0  0  0
 70 71  2  0  0  0  0
 70 72  1  0  0  0  0
 72 73  1  0  0  0  0
 72 76  1  0  0  0  0
 72161  1  6  0  0  0
 73 74  1  0  0  0  0
 73 75  1  0  0  0  0
 73162  1  0  0  0  0
 74163  1  0  0  0  0
 74164  1  0  0  0  0
 74165  1  0  0  0  0
 75166  1  0  0  0  0
 75167  1  0  0  0  0
 75168  1  0  0  0  0
 76 77  1  0  0  0  0
 76 78  1  0  0  0  0
 77169  1  0  0  0  0
 77170  1  0  0  0  0
 77171  1  0  0  0  0
 78 79  2  0  0  0  0
M  END
>  <Energy>
550.394

$$$$