44411703
  -OEChem-03242010103D

 69 74  0     1  0  0  0  0  0999 V2000
    2.6468   -2.9044    1.5291 O   0  0  0  0  0  0  0  0  0  0  0  0
    1.2324   -1.1620   -2.5222 O   0  0  0  0  0  0  0  0  0  0  0  0
   -5.3038    2.8451    0.4005 O   0  0  0  0  0  0  0  0  0  0  0  0
   -7.8668    1.8664   -0.0466 O   0  0  0  0  0  0  0  0  0  0  0  0
    1.6750   -2.2482   -0.4971 N   0  0  0  0  0  0  0  0  0  0  0  0
   -1.8477   -3.0958    0.3849 N   0  0  2  0  0  0  0  0  0  0  0  0
    3.7771   -1.3703    0.0393 C   0  0  1  0  0  0  0  0  0  0  0  0
    3.3010   -0.7817   -1.3263 C   0  0  2  0  0  0  0  0  0  0  0  0
    4.0791   -0.2221    1.0462 C   0  0  0  0  0  0  0  0  0  0  0  0
    3.2727    0.7734   -1.2637 C   0  0  0  0  0  0  0  0  0  0  0  0
    5.1351    0.6371    0.3511 C   0  0  0  0  0  0  0  0  0  0  0  0
    2.8171    0.6311    1.1555 C   0  0  0  0  0  0  0  0  0  0  0  0
    4.7006    1.1736   -0.8933 C   0  0  0  0  0  0  0  0  0  0  0  0
    2.3838    1.1659   -0.0855 C   0  0  0  0  0  0  0  0  0  0  0  0
    2.6528   -2.2793    0.4774 C   0  0  0  0  0  0  0  0  0  0  0  0
    1.9441   -1.4031   -1.5565 C   0  0  0  0  0  0  0  0  0  0  0  0
    6.4060    0.9104    0.8342 C   0  0  0  0  0  0  0  0  0  0  0  0
    2.1154    0.8942    2.3229 C   0  0  0  0  0  0  0  0  0  0  0  0
    5.5395    1.9803   -1.6473 C   0  0  0  0  0  0  0  0  0  0  0  0
    1.2501    1.9622   -0.1555 C   0  0  0  0  0  0  0  0  0  0  0  0
    0.4624   -3.0393   -0.4152 C   0  0  0  0  0  0  0  0  0  0  0  0
    7.2476    1.7222    0.0706 C   0  0  0  0  0  0  0  0  0  0  0  0
    0.9735    1.6945    2.2486 C   0  0  0  0  0  0  0  0  0  0  0  0
    6.8188    2.2516   -1.1573 C   0  0  0  0  0  0  0  0  0  0  0  0
    0.5451    2.2234    1.0211 C   0  0  0  0  0  0  0  0  0  0  0  0
   -0.6305   -2.2961    0.3389 C   0  0  0  0  0  0  0  0  0  0  0  0
   -3.0214   -2.2398    0.5689 C   0  0  0  0  0  0  0  0  0  0  0  0
   -1.7722   -4.0898    1.4575 C   0  0  0  0  0  0  0  0  0  0  0  0
   -3.3766   -1.5112   -0.7275 C   0  0  0  0  0  0  0  0  0  0  0  0
   -4.5710   -0.6088   -0.5459 C   0  0  0  0  0  0  0  0  0  0  0  0
   -4.3895    0.7170   -0.1523 C   0  0  0  0  0  0  0  0  0  0  0  0
   -5.8571   -1.0996   -0.7710 C   0  0  0  0  0  0  0  0  0  0  0  0
   -5.4941    1.5521    0.0159 C   0  0  0  0  0  0  0  0  0  0  0  0
   -6.9617   -0.2647   -0.6028 C   0  0  0  0  0  0  0  0  0  0  0  0
   -6.7801    1.0613   -0.2094 C   0  0  0  0  0  0  0  0  0  0  0  0
   -3.9576    3.2673    0.6099 C   0  0  0  0  0  0  0  0  0  0  0  0
   -9.1459    1.2869   -0.2971 C   0  0  0  0  0  0  0  0  0  0  0  0
    4.6696   -1.9901   -0.1195 H   0  0  0  0  0  0  0  0  0  0  0  0
    3.9695   -1.1247   -2.1270 H   0  0  0  0  0  0  0  0  0  0  0  0
    4.4103   -0.5931    2.0212 H   0  0  0  0  0  0  0  0  0  0  0  0
    2.9362    1.2265   -2.2015 H   0  0  0  0  0  0  0  0  0  0  0  0
    6.7452    0.5067    1.7822 H   0  0  0  0  0  0  0  0  0  0  0  0
    2.4390    0.4883    3.2755 H   0  0  0  0  0  0  0  0  0  0  0  0
    5.2163    2.3945   -2.5964 H   0  0  0  0  0  0  0  0  0  0  0  0
    0.9109    2.3736   -1.1002 H   0  0  0  0  0  0  0  0  0  0  0  0
    0.1273   -3.2693   -1.4338 H   0  0  0  0  0  0  0  0  0  0  0  0
    0.7153   -3.9825    0.0801 H   0  0  0  0  0  0  0  0  0  0  0  0
    8.2478    1.9487    0.4305 H   0  0  0  0  0  0  0  0  0  0  0  0
    0.4082    1.9107    3.1512 H   0  0  0  0  0  0  0  0  0  0  0  0
    7.4924    2.8813   -1.7326 H   0  0  0  0  0  0  0  0  0  0  0  0
   -0.3476    2.8425    0.9872 H   0  0  0  0  0  0  0  0  0  0  0  0
   -0.2907   -2.0221    1.3474 H   0  0  0  0  0  0  0  0  0  0  0  0
   -0.7786   -1.3408   -0.1761 H   0  0  0  0  0  0  0  0  0  0  0  0
   -3.8879   -2.8543    0.8498 H   0  0  0  0  0  0  0  0  0  0  0  0
   -2.8683   -1.5303    1.3938 H   0  0  0  0  0  0  0  0  0  0  0  0
   -0.9303   -4.7745    1.3164 H   0  0  0  0  0  0  0  0  0  0  0  0
   -2.6715   -4.7166    1.4611 H   0  0  0  0  0  0  0  0  0  0  0  0
   -1.6775   -3.6254    2.4461 H   0  0  0  0  0  0  0  0  0  0  0  0
   -3.5929   -2.2417   -1.5189 H   0  0  0  0  0  0  0  0  0  0  0  0
   -2.5496   -0.9054   -1.1132 H   0  0  0  0  0  0  0  0  0  0  0  0
   -3.3669    1.0407    0.0110 H   0  0  0  0  0  0  0  0  0  0  0  0
   -6.0102   -2.1316   -1.0760 H   0  0  0  0  0  0  0  0  0  0  0  0
   -7.9298   -0.7141   -0.7947 H   0  0  0  0  0  0  0  0  0  0  0  0
   -3.9933    4.3199    0.9099 H   0  0  0  0  0  0  0  0  0  0  0  0
   -3.3709    3.2207   -0.3139 H   0  0  0  0  0  0  0  0  0  0  0  0
   -3.4854    2.7192    1.4324 H   0  0  0  0  0  0  0  0  0  0  0  0
   -9.8934    2.0674   -0.1205 H   0  0  0  0  0  0  0  0  0  0  0  0
   -9.3645    0.4735    0.4031 H   0  0  0  0  0  0  0  0  0  0  0  0
   -9.2510    0.9771   -1.3424 H   0  0  0  0  0  0  0  0  0  0  0  0
  1 15  2  0  0  0  0
  2 16  2  0  0  0  0
  3 33  1  0  0  0  0
  3 36  1  0  0  0  0
  4 35  1  0  0  0  0
  4 37  1  0  0  0  0
  5 15  1  0  0  0  0
  5 16  1  0  0  0  0
  5 21  1  0  0  0  0
  6 26  1  0  0  0  0
  6 27  1  0  0  0  0
  6 28  1  0  0  0  0
  7  8  1  0  0  0  0
  7  9  1  0  0  0  0
  7 15  1  0  0  0  0
  7 38  1  0  0  0  0
  8 10  1  0  0  0  0
  8 16  1  0  0  0  0
  8 39  1  0  0  0  0
  9 11  1  0  0  0  0
  9 12  1  0  0  0  0
  9 40  1  0  0  0  0
 10 13  1  0  0  0  0
 10 14  1  0  0  0  0
 10 41  1  0  0  0  0
 11 13  1  0  0  0  0
 11 17  2  0  0  0  0
 12 14  1  0  0  0  0
 12 18  2  0  0  0  0
 13 19  2  0  0  0  0
 14 20  2  0  0  0  0
 17 22  1  0  0  0  0
 17 42  1  0  0  0  0
 18 23  1  0  0  0  0
 18 43  1  0  0  0  0
 19 24  1  0  0  0  0
 19 44  1  0  0  0  0
 20 25  1  0  0  0  0
 20 45  1  0  0  0  0
 21 26  1  0  0  0  0
 21 46  1  0  0  0  0
 21 47  1  0  0  0  0
 22 24  2  0  0  0  0
 22 48  1  0  0  0  0
 23 25  2  0  0  0  0
 23 49  1  0  0  0  0
 24 50  1  0  0  0  0
 25 51  1  0  0  0  0
 26 52  1  0  0  0  0
 26 53  1  0  0  0  0
 27 29  1  0  0  0  0
 27 54  1  0  0  0  0
 27 55  1  0  0  0  0
 28 56  1  0  0  0  0
 28 57  1  0  0  0  0
 28 58  1  0  0  0  0
 29 30  1  0  0  0  0
 29 59  1  0  0  0  0
 29 60  1  0  0  0  0
 30 31  2  0  0  0  0
 30 32  1  0  0  0  0
 31 33  1  0  0  0  0
 31 61  1  0  0  0  0
 32 34  2  0  0  0  0
 32 62  1  0  0  0  0
 33 35  2  0  0  0  0
 34 35  1  0  0  0  0
 34 63  1  0  0  0  0
 36 64  1  0  0  0  0
 36 65  1  0  0  0  0
 36 66  1  0  0  0  0
 37 67  1  0  0  0  0
 37 68  1  0  0  0  0
 37 69  1  0  0  0  0
M  END
> <PUBCHEM_COMPOUND_CID>
44411703

> <PUBCHEM_CONFORMER_RMSD>
1.2

> <PUBCHEM_CONFORMER_DIVERSEORDER>
2
46
223
156
212
63
241
6
140
249
229
102
90
225
114
162
161
147
197
74
232
129
160
38
209
196
230
97
198
264
10
266
130
214
57
158
178
219
76
142
12
70
68
226
188
165
260
242
138
227
262
30
206
88
267
7
99
73
149
204
47
44
202
42
122
248
137
166
195
208
146
207
152
95
155
117
124
211
199
239
53
182
228
41
153
71
24
151
185
246
256
179
36
84
200
220
67
231
119
27
81
127
40
255
218
143
54
184
110
98
37
159
133
183
87
135
111
43
263
247
109
65
49
171
253
104
233
186
39
85
103
181
28
203
86
176
154
131
271
19
115
236
106
191
66
192
145
244
216
177
167
173
187
8
128
189
240
101
112
107
96
190
224
144
16
261
268
150
194
258
174
35
126
259
141
245
59
217
31
89
82
5
213
175
170
60
210
148
132
193
51
136
108
243
20
48
252
270
58
4
9
116
157
251
15
164
50
123
222
45
3
215
238
93
22
1
17
201
92
235
105
55
14
100
221
83
23
91
139
18
26
32
69
75
269
29
163
94
11
52
254
113
33
62
168
34
237
250
25
118
72
265
79
257
80
180
56
77
64
78
205
13
234
125
121
172
120
134
61
169
21

> <PUBCHEM_MMFF94_PARTIAL_CHARGES>
48
1 -0.57
10 0.29
11 -0.14
12 -0.14
13 -0.14
14 -0.14
15 0.57
16 0.57
17 -0.15
18 -0.15
19 -0.15
2 -0.57
20 -0.15
21 0.3
22 -0.15
23 -0.15
24 -0.15
25 -0.15
26 0.27
27 0.27
28 0.27
29 0.14
3 -0.36
30 -0.14
31 -0.15
32 -0.15
33 0.08
34 -0.15
35 0.08
36 0.28
37 0.28
4 -0.36
42 0.15
43 0.15
44 0.15
45 0.15
48 0.15
49 0.15
5 -0.42
50 0.15
51 0.15
6 -0.81
61 0.15
62 0.15
63 0.15
7 0.06
8 0.06
9 0.29

> <PUBCHEM_EFFECTIVE_ROTOR_COUNT>
8.2

> <PUBCHEM_PHARMACOPHORE_FEATURES>
10
1 1 acceptor
1 2 acceptor
1 3 acceptor
1 4 acceptor
1 6 cation
5 5 7 8 15 16 rings
6 11 13 17 19 22 24 rings
6 12 14 18 20 23 25 rings
6 30 31 32 33 34 35 rings
8 7 8 9 10 11 12 13 14 rings

> <PUBCHEM_HEAVY_ATOM_COUNT>
37

> <PUBCHEM_ATOM_DEF_STEREO_COUNT>
0

> <PUBCHEM_ATOM_UDEF_STEREO_COUNT>
2

> <PUBCHEM_BOND_DEF_STEREO_COUNT>
0

> <PUBCHEM_BOND_UDEF_STEREO_COUNT>
0

> <PUBCHEM_ISOTOPIC_ATOM_COUNT>
0

> <PUBCHEM_COMPONENT_COUNT>
1

> <PUBCHEM_CACTVS_TAUTO_COUNT>
1

> <PUBCHEM_CONFORMER_ID>
02A5AB3700000002

> <PUBCHEM_MMFF94_ENERGY>
128.7308

> <PUBCHEM_FEATURE_SELFOVERLAP>
50.866

> <PUBCHEM_SHAPE_FINGERPRINT>
10190206 1 17916605210263323576
10675989 125 17906742401271591793
11828532 37 11959431449786144693
1200032 147 17894635867885093882
13402501 40 18343017800745409685
13617811 41 18335136471987732229
13944108 23 18340769251811030533
13947947 74 18201720652704142569
14068700 675 17908984305950287922
14294032 229 18199472233030063119
14347329 18 18410292557709550842
14394314 77 18411703158779156001
14705955 166 17605850320303786795
14931854 50 18060144232243406089
15150948 74 18409163308024337533
15183329 4 18060420197373376641
15238133 3 18339073904392936190
15351339 4 18200588087139600961
18608769 82 18338521966873136931
21298829 104 18411138035123155837
22121540 332 18059282258399273424
23522609 53 17024883795599069086
24893992 56 18408321073954696963
3918712 181 18408600345375879429
437795 51 17346590915887010320
508180 173 17703226333596074107
508706 21 18411420635587117387
513532 50 17632569457548403618
5776283 40 18341896358588223377
6081469 158 10447930555992612601

> <PUBCHEM_SHAPE_MULTIPOLES>
728
20.43
4.05
1.66
29.01
2.32
0.18
-16.09
-4.39
2.14
1.05
-1.86
0.02
-0.69

> <PUBCHEM_SHAPE_SELFOVERLAP>
1612.522

> <PUBCHEM_SHAPE_VOLUME>
392.9

> <PUBCHEM_COORDINATE_TYPE>
2
5
10

$$$$