80
 OpenBabel03292021523D

 94 97  0  0  1  0  0  0  0  0999 V2000
    4.1157   20.0157    6.0344 C   0  0  0  0  0  0  0  0  0  0  0  0
    5.0180   20.3437    4.8775 C   0  0  0  0  0  0  0  0  0  0  0  0
    6.3318   20.7254    5.2126 C   0  0  0  0  0  0  0  0  0  0  0  0
    7.3020   20.9223    4.2374 C   0  0  0  0  0  0  0  0  0  0  0  0
    6.9768   20.7387    2.9006 C   0  0  0  0  0  0  0  0  0  0  0  0
    5.6721   20.3781    2.5258 C   0  0  0  0  0  0  0  0  0  0  0  0
    5.3900   20.1232    1.0694 C   0  0  0  0  0  0  0  0  0  0  0  0
    4.6728   20.2058    3.5140 C   0  0  0  0  0  0  0  0  0  0  0  0
    3.4608   19.7568    3.0390 O   0  0  0  0  0  0  0  0  0  0  0  0
    2.2966   20.3758    3.5583 C   0  0  0  0  0  0  0  0  0  0  0  0
    1.0167   19.8021    2.9366 C   0  0  0  0  0  0  0  0  0  0  0  0
    0.2874   20.4695    2.2021 O   0  0  0  0  0  0  0  0  0  0  0  0
    0.6374   18.5169    3.2525 N   0  0  0  0  0  0  0  0  0  0  0  0
    1.2527   17.6393    4.2577 C   0  0  1  0  0  0  0  0  0  0  0  0
    0.7111   17.9289    5.6847 C   0  0  0  0  0  0  0  0  0  0  0  0
   -0.7583   17.7589    5.9959 C   0  0  0  0  0  0  0  0  0  0  0  0
   -1.2323   16.5522    6.5301 C   0  0  0  0  0  0  0  0  0  0  0  0
   -2.5518   16.4258    6.9655 C   0  0  0  0  0  0  0  0  0  0  0  0
   -3.4223   17.5084    6.8718 C   0  0  0  0  0  0  0  0  0  0  0  0
   -2.9771   18.7045    6.3117 C   0  0  0  0  0  0  0  0  0  0  0  0
   -1.6580   18.8311    5.8688 C   0  0  0  0  0  0  0  0  0  0  0  0
    1.2177   16.1380    3.8636 C   0  0  1  0  0  0  0  0  0  0  0  0
   -0.1306   15.6510    3.7973 O   0  0  0  0  0  0  0  0  0  0  0  0
    1.8800   15.7768    2.5200 C   0  0  0  0  0  0  0  0  0  0  0  0
    3.3688   16.1438    2.3222 C   0  0  2  0  0  0  0  0  0  0  0  0
    3.8124   15.8551    0.8555 C   0  0  0  0  0  0  0  0  0  0  0  0
    3.9667   14.3794    0.5410 C   0  0  0  0  0  0  0  0  0  0  0  0
    2.9013   13.6345    0.0136 C   0  0  0  0  0  0  0  0  0  0  0  0
    3.0036   12.2476   -0.0989 C   0  0  0  0  0  0  0  0  0  0  0  0
    4.1702   11.5935    0.2948 C   0  0  0  0  0  0  0  0  0  0  0  0
    5.2581   12.3342    0.7598 C   0  0  0  0  0  0  0  0  0  0  0  0
    5.1573   13.7164    0.8654 C   0  0  0  0  0  0  0  0  0  0  0  0
    4.2360   15.4311    3.2640 N   0  0  0  0  0  0  0  0  0  0  0  0
    5.0020   16.0210    4.2388 C   0  0  0  0  0  0  0  0  0  0  0  0
    5.0056   17.2376    4.3936 O   0  0  0  0  0  0  0  0  0  0  0  0
    5.8790   15.0895    5.1643 C   0  0  2  0  0  0  0  0  0  0  0  0
    7.3411   15.6746    5.1527 C   0  0  0  0  0  0  0  0  0  0  0  0
    8.1750   15.3285    3.9125 C   0  0  0  0  0  0  0  0  0  0  0  0
    8.1247   15.4201    6.4485 C   0  0  0  0  0  0  0  0  0  0  0  0
    5.6857   13.6210    4.9759 N   0  0  0  0  0  0  0  0  0  0  0  0
    6.8197   12.7147    4.8039 C   0  0  0  0  0  0  0  0  0  0  0  0
    6.5203   11.2778    5.1966 C   0  0  0  0  0  0  0  0  0  0  0  0
    5.2443   10.8861    4.5027 C   0  0  0  0  0  0  0  0  0  0  0  0
    4.2138   11.8027    4.9010 N   0  0  0  0  0  0  0  0  0  0  0  0
    4.4056   13.1207    5.1694 C   0  0  0  0  0  0  0  0  0  0  0  0
    3.4446   13.8112    5.4856 O   0  0  0  0  0  0  0  0  0  0  0  0
    4.6676   19.9854    6.9809 H   0  0  0  0  0  0  0  0  0  0  0  0
    3.6691   19.0257    5.9111 H   0  0  0  0  0  0  0  0  0  0  0  0
    3.3454   20.7811    6.1582 H   0  0  0  0  0  0  0  0  0  0  0  0
    6.6203   20.8253    6.2572 H   0  0  0  0  0  0  0  0  0  0  0  0
    8.3158   21.1843    4.5253 H   0  0  0  0  0  0  0  0  0  0  0  0
    7.7543   20.8577    2.1498 H   0  0  0  0  0  0  0  0  0  0  0  0
    6.2448   20.4049    0.4431 H   0  0  0  0  0  0  0  0  0  0  0  0
    4.5327   20.7125    0.7312 H   0  0  0  0  0  0  0  0  0  0  0  0
    5.1966   19.0587    0.9032 H   0  0  0  0  0  0  0  0  0  0  0  0
    2.3176   21.4574    3.3867 H   0  0  0  0  0  0  0  0  0  0  0  0
    2.1797   20.2076    4.6231 H   0  0  0  0  0  0  0  0  0  0  0  0
   -0.3052   18.3074    2.9425 H   0  0  0  0  0  0  0  0  0  0  0  0
    2.3120   17.9038    4.3007 H   0  0  0  0  0  0  0  0  0  0  0  0
    0.9617   18.9632    5.9520 H   0  0  0  0  0  0  0  0  0  0  0  0
    1.2823   17.3217    6.4003 H   0  0  0  0  0  0  0  0  0  0  0  0
   -0.5602   15.6993    6.6283 H   0  0  0  0  0  0  0  0  0  0  0  0
   -2.8930   15.4863    7.3939 H   0  0  0  0  0  0  0  0  0  0  0  0
   -4.4409   17.4195    7.2371 H   0  0  0  0  0  0  0  0  0  0  0  0
   -3.6575   19.5525    6.2439 H   0  0  0  0  0  0  0  0  0  0  0  0
   -1.3268   19.7849    5.4655 H   0  0  0  0  0  0  0  0  0  0  0  0
    1.7066   15.5672    4.6587 H   0  0  0  0  0  0  0  0  0  0  0  0
   -0.6158   16.1859    3.1492 H   0  0  0  0  0  0  0  0  0  0  0  0
    1.2905   16.2303    1.7119 H   0  0  0  0  0  0  0  0  0  0  0  0
    1.7541   14.6944    2.3888 H   0  0  0  0  0  0  0  0  0  0  0  0
    3.4857   17.2191    2.4772 H   0  0  0  0  0  0  0  0  0  0  0  0
    3.1092   16.3141    0.1518 H   0  0  0  0  0  0  0  0  0  0  0  0
    4.7789   16.3467    0.6706 H   0  0  0  0  0  0  0  0  0  0  0  0
    1.9769   14.1237   -0.2788 H   0  0  0  0  0  0  0  0  0  0  0  0
    2.1620   11.6708   -0.4780 H   0  0  0  0  0  0  0  0  0  0  0  0
    4.2321   10.5114    0.2416 H   0  0  0  0  0  0  0  0  0  0  0  0
    6.1731   11.8301    1.0516 H   0  0  0  0  0  0  0  0  0  0  0  0
    6.0071   14.2854    1.2514 H   0  0  0  0  0  0  0  0  0  0  0  0
    4.1953   14.4220    3.2553 H   0  0  0  0  0  0  0  0  0  0  0  0
    5.4669   15.2905    6.1645 H   0  0  0  0  0  0  0  0  0  0  0  0
    7.2338   16.7681    5.1242 H   0  0  0  0  0  0  0  0  0  0  0  0
    8.8098   14.4503    4.0684 H   0  0  0  0  0  0  0  0  0  0  0  0
    8.8508   16.1558    3.6670 H   0  0  0  0  0  0  0  0  0  0  0  0
    7.5460   15.1490    3.0361 H   0  0  0  0  0  0  0  0  0  0  0  0
    8.6440   14.4591    6.4602 H   0  0  0  0  0  0  0  0  0  0  0  0
    7.4721   15.4667    7.3256 H   0  0  0  0  0  0  0  0  0  0  0  0
    8.8975   16.1878    6.5731 H   0  0  0  0  0  0  0  0  0  0  0  0
    7.6393   13.0330    5.4421 H   0  0  0  0  0  0  0  0  0  0  0  0
    7.1378   12.7692    3.7584 H   0  0  0  0  0  0  0  0  0  0  0  0
    6.3874   11.2146    6.2851 H   0  0  0  0  0  0  0  0  0  0  0  0
    7.3494   10.6176    4.9256 H   0  0  0  0  0  0  0  0  0  0  0  0
    4.9313    9.8777    4.7852 H   0  0  0  0  0  0  0  0  0  0  0  0
    5.3488   10.9265    3.4142 H   0  0  0  0  0  0  0  0  0  0  0  0
    3.2432   11.5132    4.8967 H   0  0  0  0  0  0  0  0  0  0  0  0
  1  2  1  0  0  0  0
  1 47  1  0  0  0  0
  1 48  1  0  0  0  0
  1 49  1  0  0  0  0
  2  3  1  0  0  0  0
  2  8  2  0  0  0  0
  3  4  2  0  0  0  0
  3 50  1  0  0  0  0
  4  5  1  0  0  0  0
  4 51  1  0  0  0  0
  5  6  2  0  0  0  0
  5 52  1  0  0  0  0
  6  7  1  0  0  0  0
  6  8  1  0  0  0  0
  7 53  1  0  0  0  0
  7 54  1  0  0  0  0
  7 55  1  0  0  0  0
  8  9  1  0  0  0  0
  9 10  1  0  0  0  0
 10 11  1  0  0  0  0
 10 56  1  0  0  0  0
 10 57  1  0  0  0  0
 11 12  2  0  0  0  0
 11 13  1  0  0  0  0
 13 14  1  0  0  0  0
 13 58  1  0  0  0  0
 14 15  1  0  0  0  0
 14 22  1  0  0  0  0
 14 59  1  1  0  0  0
 15 16  1  0  0  0  0
 15 60  1  0  0  0  0
 15 61  1  0  0  0  0
 16 17  1  0  0  0  0
 16 21  2  0  0  0  0
 17 18  2  0  0  0  0
 17 62  1  0  0  0  0
 18 19  1  0  0  0  0
 18 63  1  0  0  0  0
 19 20  2  0  0  0  0
 19 64  1  0  0  0  0
 20 21  1  0  0  0  0
 20 65  1  0  0  0  0
 21 66  1  0  0  0  0
 22 23  1  0  0  0  0
 22 24  1  0  0  0  0
 22 67  1  1  0  0  0
 23 68  1  0  0  0  0
 24 69  1  0  0  0  0
 24 70  1  0  0  0  0
 25 33  1  0  0  0  0
 25 26  1  0  0  0  0
 25 24  1  0  0  0  0
 25 71  1  1  0  0  0
 26 27  1  0  0  0  0
 26 72  1  0  0  0  0
 26 73  1  0  0  0  0
 27 28  1  0  0  0  0
 27 32  2  0  0  0  0
 28 29  2  0  0  0  0
 28 74  1  0  0  0  0
 29 30  1  0  0  0  0
 29 75  1  0  0  0  0
 30 31  2  0  0  0  0
 30 76  1  0  0  0  0
 31 32  1  0  0  0  0
 31 77  1  0  0  0  0
 32 78  1  0  0  0  0
 33 34  1  0  0  0  0
 33 79  1  0  0  0  0
 34 35  2  0  0  0  0
 36 40  1  0  0  0  0
 36 37  1  0  0  0  0
 36 34  1  0  0  0  0
 36 80  1  1  0  0  0
 37 38  1  0  0  0  0
 37 39  1  0  0  0  0
 37 81  1  0  0  0  0
 38 82  1  0  0  0  0
 38 83  1  0  0  0  0
 38 84  1  0  0  0  0
 39 85  1  0  0  0  0
 39 86  1  0  0  0  0
 39 87  1  0  0  0  0
 40 41  1  0  0  0  0
 40 45  1  0  0  0  0
 41 42  1  0  0  0  0
 41 88  1  0  0  0  0
 41 89  1  0  0  0  0
 42 43  1  0  0  0  0
 42 90  1  0  0  0  0
 42 91  1  0  0  0  0
 43 44  1  0  0  0  0
 43 92  1  0  0  0  0
 43 93  1  0  0  0  0
 44 45  1  0  0  0  0
 44 94  1  0  0  0  0
 45 46  2  0  0  0  0
M  END
>  <Energy>
59.1976

$$$$