56946832
  -OEChem-03242010103D

 47 49  0     0  0  0  0  0  0999 V2000
    6.5261   -0.1770    1.3200 S   0  0  0  0  0  0  0  0  0  0  0  0
   -4.4024    2.3069   -0.4376 O   0  0  0  0  0  0  0  0  0  0  0  0
   -5.5336   -2.2585    0.4663 O   0  0  0  0  0  0  0  0  0  0  0  0
   -6.3078    0.3807    0.1363 O   0  0  0  0  0  0  0  0  0  0  0  0
   -0.6219   -2.2167   -0.6868 O   0  0  0  0  0  0  0  0  0  0  0  0
    1.3867    3.0642   -0.2153 O   0  5  0  0  0  0  0  0  0  0  0  0
    1.3634    2.4025    1.8777 O   0  0  0  0  0  0  0  0  0  0  0  0
    0.0386   -0.0494   -0.0605 N   0  0  0  0  0  0  0  0  0  0  0  0
    1.6270    2.2084    0.6681 N   0  3  0  0  0  0  0  0  0  0  0  0
    1.4350   -0.1241   -0.0717 C   0  0  0  0  0  0  0  0  0  0  0  0
    4.2171   -0.3281   -0.1109 C   0  0  0  0  0  0  0  0  0  0  0  0
   -2.3097   -0.6826   -0.2287 C   0  0  0  0  0  0  0  0  0  0  0  0
    2.2199    0.9728    0.2839 C   0  0  0  0  0  0  0  0  0  0  0  0
    3.6109    0.8707    0.2644 C   0  0  0  0  0  0  0  0  0  0  0  0
    2.0413   -1.3230   -0.4469 C   0  0  0  0  0  0  0  0  0  0  0  0
    3.4323   -1.4250   -0.4666 C   0  0  0  0  0  0  0  0  0  0  0  0
   -0.8786   -1.0634   -0.3581 C   0  0  0  0  0  0  0  0  0  0  0  0
   -3.2664   -1.6557    0.0608 C   0  0  0  0  0  0  0  0  0  0  0  0
   -2.6957    0.6473   -0.3957 C   0  0  0  0  0  0  0  0  0  0  0  0
   -4.0386    1.0043   -0.2732 C   0  0  0  0  0  0  0  0  0  0  0  0
   -4.6092   -1.2986    0.1832 C   0  0  0  0  0  0  0  0  0  0  0  0
   -4.9953    0.0313    0.0160 C   0  0  0  0  0  0  0  0  0  0  0  0
    5.6556   -0.4348   -0.1318 C   0  0  0  0  0  0  0  0  0  0  0  0
    6.4889   -0.7266   -1.1894 C   0  0  0  0  0  0  0  0  0  0  0  0
    7.8601   -0.7388   -0.8023 C   0  0  0  0  0  0  0  0  0  0  0  0
    8.0226   -0.4559    0.5359 C   0  0  0  0  0  0  0  0  0  0  0  0
   -3.3624    3.2378   -0.7312 C   0  0  0  0  0  0  0  0  0  0  0  0
   -5.8052   -2.5100    1.8438 C   0  0  0  0  0  0  0  0  0  0  0  0
   -7.0987    0.3413   -1.0494 C   0  0  0  0  0  0  0  0  0  0  0  0
    4.2155    1.7355    0.5332 H   0  0  0  0  0  0  0  0  0  0  0  0
   -0.3290    0.8390    0.2638 H   0  0  0  0  0  0  0  0  0  0  0  0
    1.5137   -2.2178   -0.7422 H   0  0  0  0  0  0  0  0  0  0  0  0
    3.8883   -2.3678   -0.7605 H   0  0  0  0  0  0  0  0  0  0  0  0
   -2.9788   -2.6953    0.1980 H   0  0  0  0  0  0  0  0  0  0  0  0
   -1.9424    1.3729   -0.6730 H   0  0  0  0  0  0  0  0  0  0  0  0
    6.1407   -0.9220   -2.1961 H   0  0  0  0  0  0  0  0  0  0  0  0
    8.6854   -0.9443   -1.4716 H   0  0  0  0  0  0  0  0  0  0  0  0
    8.9485   -0.3995    1.0907 H   0  0  0  0  0  0  0  0  0  0  0  0
   -2.6329    3.3024    0.0835 H   0  0  0  0  0  0  0  0  0  0  0  0
   -2.8942    3.0284   -1.6991 H   0  0  0  0  0  0  0  0  0  0  0  0
   -3.8298    4.2247   -0.8145 H   0  0  0  0  0  0  0  0  0  0  0  0
   -4.9022   -2.8582    2.3552 H   0  0  0  0  0  0  0  0  0  0  0  0
   -6.1898   -1.6088    2.3317 H   0  0  0  0  0  0  0  0  0  0  0  0
   -6.5662   -3.2927    1.9055 H   0  0  0  0  0  0  0  0  0  0  0  0
   -8.1166    0.6465   -0.7922 H   0  0  0  0  0  0  0  0  0  0  0  0
   -7.1308   -0.6737   -1.4577 H   0  0  0  0  0  0  0  0  0  0  0  0
   -6.7047    1.0350   -1.7989 H   0  0  0  0  0  0  0  0  0  0  0  0
  1 23  1  0  0  0  0
  1 26  1  0  0  0  0
  2 20  1  0  0  0  0
  2 27  1  0  0  0  0
  3 21  1  0  0  0  0
  3 28  1  0  0  0  0
  4 22  1  0  0  0  0
  4 29  1  0  0  0  0
  5 17  2  0  0  0  0
  6  9  1  0  0  0  0
  7  9  2  0  0  0  0
  8 10  1  0  0  0  0
  8 17  1  0  0  0  0
  8 31  1  0  0  0  0
  9 13  1  0  0  0  0
 10 13  2  0  0  0  0
 10 15  1  0  0  0  0
 11 14  2  0  0  0  0
 11 16  1  0  0  0  0
 11 23  1  0  0  0  0
 12 17  1  0  0  0  0
 12 18  2  0  0  0  0
 12 19  1  0  0  0  0
 13 14  1  0  0  0  0
 14 30  1  0  0  0  0
 15 16  2  0  0  0  0
 15 32  1  0  0  0  0
 16 33  1  0  0  0  0
 18 21  1  0  0  0  0
 18 34  1  0  0  0  0
 19 20  2  0  0  0  0
 19 35  1  0  0  0  0
 20 22  1  0  0  0  0
 21 22  2  0  0  0  0
 23 24  2  0  0  0  0
 24 25  1  0  0  0  0
 24 36  1  0  0  0  0
 25 26  2  0  0  0  0
 25 37  1  0  0  0  0
 26 38  1  0  0  0  0
 27 39  1  0  0  0  0
 27 40  1  0  0  0  0
 27 41  1  0  0  0  0
 28 42  1  0  0  0  0
 28 43  1  0  0  0  0
 28 44  1  0  0  0  0
 29 45  1  0  0  0  0
 29 46  1  0  0  0  0
 29 47  1  0  0  0  0
M  CHG  2   6  -1   9   1
M  END
> <PUBCHEM_COMPOUND_CID>
56946832

> <PUBCHEM_CONFORMER_RMSD>
1

> <PUBCHEM_CONFORMER_DIVERSEORDER>
1
11
5
14
4
3
8
12
6
10
13
15
2
9
7

> <PUBCHEM_MMFF94_PARTIAL_CHARGES>
38
1 -0.08
10 0.12
11 0.05
12 0.09
13 0.13
14 -0.15
15 -0.15
16 -0.15
17 0.54
18 -0.15
19 -0.15
2 -0.36
20 0.08
21 0.08
22 0.08
23 -0.01
24 -0.15
25 -0.15
26 -0.11
27 0.28
28 0.28
29 0.28
3 -0.36
30 0.15
31 0.37
32 0.15
33 0.15
34 0.15
35 0.15
36 0.15
37 0.15
38 0.15
4 -0.36
5 -0.57
6 -0.52
7 -0.52
8 -0.55
9 0.91

> <PUBCHEM_EFFECTIVE_ROTOR_COUNT>
8

> <PUBCHEM_PHARMACOPHORE_FEATURES>
11
1 2 acceptor
1 3 acceptor
1 4 acceptor
1 5 acceptor
1 6 acceptor
1 6 anion
1 7 acceptor
1 8 donor
5 1 23 24 25 26 rings
6 10 11 13 14 15 16 rings
6 12 18 19 20 21 22 rings

> <PUBCHEM_HEAVY_ATOM_COUNT>
29

> <PUBCHEM_ATOM_DEF_STEREO_COUNT>
0

> <PUBCHEM_ATOM_UDEF_STEREO_COUNT>
0

> <PUBCHEM_BOND_DEF_STEREO_COUNT>
0

> <PUBCHEM_BOND_UDEF_STEREO_COUNT>
0

> <PUBCHEM_ISOTOPIC_ATOM_COUNT>
0

> <PUBCHEM_COMPONENT_COUNT>
1

> <PUBCHEM_CACTVS_TAUTO_COUNT>
2

> <PUBCHEM_CONFORMER_ID>
0364F09000000001

> <PUBCHEM_MMFF94_ENERGY>
122.8202

> <PUBCHEM_FEATURE_SELFOVERLAP>
55.915

> <PUBCHEM_SHAPE_FINGERPRINT>
10 15 18341324578956630898
100830 39 18335137549063959940
10299344 5 17385161749381843058
10319926 262 18336254725844550603
10411042 1 18118690049101987387
11315181 36 17894353284959548311
11545043 162 18187648050545223635
11578080 2 16734932451505265935
11646440 116 17989212559835136114
11719270 70 18343017762539941694
12166972 35 18187933910641546900
12236239 1 17167864179393703998
12516196 113 17988923362649495640
12645989 146 18271804696136379535
13402501 40 18341328924946842357
13685833 64 18342741840812980570
14251764 18 18261390018549383590
14341114 176 18340491174232078705
14856354 85 18113624486113193895
15183329 4 18335702724089651490
15419008 47 18202277000907753800
15849732 13 17561080315469594622
17980427 23 13901903449209564560
18393751 57 16114276154433096801
18608769 82 18408889568051384395
20721686 56 18338512053803638009
21033648 29 17845917576814799344
21267235 1 18342184379764375518
21279426 13 18198063578166316254
21315759 40 16950282906068788674
21792961 116 18342460288532101022
221357 26 18343298150425215429
23522609 53 17314533464841753724
23559900 14 18408317809494091553
24771293 8 17843946261064569920
249057 3 18343299293018378647
3004659 81 18335141999493817956
3178227 256 18340217374315122634
335352 9 18343018908857528502
350125 39 18411139160272751149
3545911 37 18343581828355957143
4073 2 18041002881782049770
508706 21 18335973182834567909
5104073 3 18339082575251737275
59755656 215 18411981334286735247

> <PUBCHEM_SHAPE_MULTIPOLES>
555.48
21.15
2.71
1.11
14.03
1.62
0.36
-5.82
-0.04
-3.86
0.39
0.26
-0.09
2.26

> <PUBCHEM_SHAPE_SELFOVERLAP>
1190.597

> <PUBCHEM_SHAPE_VOLUME>
310.5

> <PUBCHEM_COORDINATE_TYPE>
2
5
10

$$$$