70677541
  -OEChem-03242010103D

 37 39  0     0  0  0  0  0  0999 V2000
   -6.0246    1.7776   -1.2391 Cl  0  0  0  0  0  0  0  0  0  0  0  0
   -1.3548   -1.9967    1.5932 O   0  0  0  0  0  0  0  0  0  0  0  0
    3.8341    3.9476    0.1768 O   0  0  0  0  0  0  0  0  0  0  0  0
    2.6658    2.6227   -1.2493 O   0  0  0  0  0  0  0  0  0  0  0  0
    0.1513   -0.5229    0.7668 N   0  0  0  0  0  0  0  0  0  0  0  0
    1.1872   -1.2013    0.1151 C   0  0  0  0  0  0  0  0  0  0  0  0
    2.3206   -0.3769    0.1468 C   0  0  0  0  0  0  0  0  0  0  0  0
    1.9593    0.8130    0.8209 C   0  0  0  0  0  0  0  0  0  0  0  0
    0.6398    0.7020    1.1807 C   0  0  0  0  0  0  0  0  0  0  0  0
    1.2403   -2.4720   -0.4895 C   0  0  0  0  0  0  0  0  0  0  0  0
    2.8318    1.9735    1.0916 C   0  0  0  0  0  0  0  0  0  0  0  0
    3.5216   -0.8230   -0.4435 C   0  0  0  0  0  0  0  0  0  0  0  0
   -1.1763   -0.9673    0.9504 C   0  0  0  0  0  0  0  0  0  0  0  0
    2.4422   -2.8932   -1.0679 C   0  0  0  0  0  0  0  0  0  0  0  0
    3.5687   -2.0808   -1.0476 C   0  0  0  0  0  0  0  0  0  0  0  0
    0.1167   -3.4536   -0.5875 C   0  0  0  0  0  0  0  0  0  0  0  0
   -2.3712   -0.2899    0.4111 C   0  0  0  0  0  0  0  0  0  0  0  0
    3.0830    2.8550   -0.1231 C   0  0  0  0  0  0  0  0  0  0  0  0
   -2.2858    0.4337   -0.7784 C   0  0  0  0  0  0  0  0  0  0  0  0
   -3.5866   -0.3743    1.0903 C   0  0  0  0  0  0  0  0  0  0  0  0
   -3.4155    1.0730   -1.2886 C   0  0  0  0  0  0  0  0  0  0  0  0
   -4.7165    0.2650    0.5802 C   0  0  0  0  0  0  0  0  0  0  0  0
   -4.6309    0.9886   -0.6092 C   0  0  0  0  0  0  0  0  0  0  0  0
   -0.0080    1.3919    1.7061 H   0  0  0  0  0  0  0  0  0  0  0  0
    3.8044    1.6277    1.4609 H   0  0  0  0  0  0  0  0  0  0  0  0
    2.3835    2.6045    1.8686 H   0  0  0  0  0  0  0  0  0  0  0  0
    4.4110   -0.1987   -0.4326 H   0  0  0  0  0  0  0  0  0  0  0  0
    2.5205   -3.8689   -1.5429 H   0  0  0  0  0  0  0  0  0  0  0  0
    4.4937   -2.4253   -1.5015 H   0  0  0  0  0  0  0  0  0  0  0  0
    0.3035   -4.2287   -1.3393 H   0  0  0  0  0  0  0  0  0  0  0  0
   -0.8085   -2.9537   -0.8887 H   0  0  0  0  0  0  0  0  0  0  0  0
   -0.0326   -3.9511    0.3755 H   0  0  0  0  0  0  0  0  0  0  0  0
   -1.3518    0.5055   -1.3292 H   0  0  0  0  0  0  0  0  0  0  0  0
   -3.6728   -0.9286    2.0213 H   0  0  0  0  0  0  0  0  0  0  0  0
   -3.3347    1.6318   -2.2175 H   0  0  0  0  0  0  0  0  0  0  0  0
   -5.6568    0.1918    1.1207 H   0  0  0  0  0  0  0  0  0  0  0  0
    3.9918    4.5098   -0.6115 H   0  0  0  0  0  0  0  0  0  0  0  0
  1 23  1  0  0  0  0
  2 13  2  0  0  0  0
  3 18  1  0  0  0  0
  3 37  1  0  0  0  0
  4 18  2  0  0  0  0
  5  6  1  0  0  0  0
  5  9  1  0  0  0  0
  5 13  1  0  0  0  0
  6  7  1  0  0  0  0
  6 10  2  0  0  0  0
  7  8  1  0  0  0  0
  7 12  2  0  0  0  0
  8  9  2  0  0  0  0
  8 11  1  0  0  0  0
  9 24  1  0  0  0  0
 10 14  1  0  0  0  0
 10 16  1  0  0  0  0
 11 18  1  0  0  0  0
 11 25  1  0  0  0  0
 11 26  1  0  0  0  0
 12 15  1  0  0  0  0
 12 27  1  0  0  0  0
 13 17  1  0  0  0  0
 14 15  2  0  0  0  0
 14 28  1  0  0  0  0
 15 29  1  0  0  0  0
 16 30  1  0  0  0  0
 16 31  1  0  0  0  0
 16 32  1  0  0  0  0
 17 19  2  0  0  0  0
 17 20  1  0  0  0  0
 19 21  1  0  0  0  0
 19 33  1  0  0  0  0
 20 22  2  0  0  0  0
 20 34  1  0  0  0  0
 21 23  2  0  0  0  0
 21 35  1  0  0  0  0
 22 23  1  0  0  0  0
 22 36  1  0  0  0  0
M  END
> <PUBCHEM_COMPOUND_CID>
70677541

> <PUBCHEM_CONFORMER_RMSD>
0.8

> <PUBCHEM_CONFORMER_DIVERSEORDER>
1
6
15
9
4
18
11
19
5
14
16
3
17
2
7
13
8
12
10

> <PUBCHEM_MMFF94_PARTIAL_CHARGES>
31
1 -0.18
10 -0.14
11 0.24
12 -0.15
13 0.49
14 -0.15
15 -0.15
16 0.14
17 0.09
18 0.66
19 -0.15
2 -0.57
20 -0.15
21 -0.15
22 -0.15
23 0.18
24 0.15
27 0.15
28 0.15
29 0.15
3 -0.65
33 0.15
34 0.15
35 0.15
36 0.15
37 0.5
4 -0.57
5 0.29
6 -0.15
8 -0.18
9 -0.3

> <PUBCHEM_EFFECTIVE_ROTOR_COUNT>
4

> <PUBCHEM_PHARMACOPHORE_FEATURES>
7
1 2 acceptor
1 3 acceptor
1 4 acceptor
3 3 4 18 anion
5 5 6 7 8 9 rings
6 17 19 20 21 22 23 rings
6 6 7 10 12 14 15 rings

> <PUBCHEM_HEAVY_ATOM_COUNT>
23

> <PUBCHEM_ATOM_DEF_STEREO_COUNT>
0

> <PUBCHEM_ATOM_UDEF_STEREO_COUNT>
0

> <PUBCHEM_BOND_DEF_STEREO_COUNT>
0

> <PUBCHEM_BOND_UDEF_STEREO_COUNT>
0

> <PUBCHEM_ISOTOPIC_ATOM_COUNT>
0

> <PUBCHEM_COMPONENT_COUNT>
1

> <PUBCHEM_CACTVS_TAUTO_COUNT>
1

> <PUBCHEM_CONFORMER_ID>
0436742500000001

> <PUBCHEM_MMFF94_ENERGY>
65.5883

> <PUBCHEM_FEATURE_SELFOVERLAP>
35.669

> <PUBCHEM_SHAPE_FINGERPRINT>
10165383 225 17839204130603871352
105312 117 18052258689842892052
12236239 1 16486685858177912619
12403259 415 18260274044870956081
12730499 353 18409169870902781059
13134695 92 17917425368142319256
13911987 19 18195834906836462046
14508225 48 17982469100714626902
14556957 393 17763505775374659454
15210252 30 17899991425984116932
15961568 22 17677617634407701293
16988056 13 18266170639309965212
17134986 127 18196379328216045356
17539 30 16973089787774441614
1813 80 17415854495995699110
18186145 218 18335985272913778955
18785283 64 18410020956836357826
20645477 70 18343303652114758971
21304303 282 16839061979323225756
21756936 100 17027971301343685124
221357 26 18196647394283824029
22289505 5 18193832644115563589
2255824 54 18272933786829415070
22907989 373 17332233707530090636
23114952 82 18410020939651246220
23557571 272 17822589265101058171
23559900 14 18410573946544413347
238 59 18339062805749167799
3060560 45 18271239418020741054
46194498 28 18339919316896489053
474 4 18411975871314960521
495365 180 18343010103779095017
5281201 14 18339082592763603517
6287921 2 18336272309651734909
6327066 14 18120364612751356404
633830 44 18335972087627989045
7399639 24 17975992160381568747
7471813 234 17417526895962121832
81228 2 17621335541489744122
9862522 239 17975970187671597856
9925002 15 16321200970010041942

> <PUBCHEM_SHAPE_MULTIPOLES>
452.61
9.63
3.87
1.36
13.57
1.33
-0.05
5.18
3.15
-5.94
0.86
0.56
-0.02
1.83

> <PUBCHEM_SHAPE_SELFOVERLAP>
985.141

> <PUBCHEM_SHAPE_VOLUME>
247.9

> <PUBCHEM_COORDINATE_TYPE>
2
5
10

$$$$