44286222
  -OEChem-03242010103D

 78 79  0     1  0  0  0  0  0999 V2000
    0.0048   -1.2179   -1.3175 O   0  0  0  0  0  0  0  0  0  0  0  0
    2.5416   -1.2311    0.3334 O   0  0  0  0  0  0  0  0  0  0  0  0
    0.6390    2.5819   -2.8059 O   0  0  0  0  0  0  0  0  0  0  0  0
    4.9526    0.7680   -0.2726 O   0  0  0  0  0  0  0  0  0  0  0  0
    1.1719   -1.7072    2.1313 O   0  0  0  0  0  0  0  0  0  0  0  0
    1.2245   -2.1880   -3.0056 O   0  0  0  0  0  0  0  0  0  0  0  0
    2.8472    1.5574   -0.8525 N   0  0  0  0  0  0  0  0  0  0  0  0
    1.3640    1.5416   -0.7172 C   0  0  2  0  0  0  0  0  0  0  0  0
   -0.2594   -2.4898   -0.6770 C   0  0  1  0  0  0  0  0  0  0  0  0
    0.5780    1.3729   -2.0464 C   0  0  2  0  0  0  0  0  0  0  0  0
    0.9964   -2.9928    0.0701 C   0  0  1  0  0  0  0  0  0  0  0  0
   -1.4791   -2.2718    0.2150 C   0  0  0  0  0  0  0  0  0  0  0  0
    3.1320   -0.1098    1.0100 C   0  0  1  0  0  0  0  0  0  0  0  0
    0.8885    2.7689    0.0725 C   0  0  0  0  0  0  0  0  0  0  0  0
   -2.6618   -1.7357   -0.5888 C   0  0  0  0  0  0  0  0  0  0  0  0
    1.0240    0.2039   -2.9387 C   0  0  0  0  0  0  0  0  0  0  0  0
    4.2080   -0.6139    1.9684 C   0  0  0  0  0  0  0  0  0  0  0  0
    3.7296    0.7673   -0.0925 C   0  0  0  0  0  0  0  0  0  0  0  0
   -3.9165   -1.5103    0.2598 C   0  0  0  0  0  0  0  0  0  0  0  0
    1.5630   -1.9226    0.9920 C   0  0  0  0  0  0  0  0  0  0  0  0
    0.7758   -1.2005   -2.4335 C   0  0  0  0  0  0  0  0  0  0  0  0
    0.7629   -4.2870    0.8460 C   0  0  0  0  0  0  0  0  0  0  0  0
   -5.0817   -0.9042   -0.5256 C   0  0  0  0  0  0  0  0  0  0  0  0
    3.4364    2.5165   -1.7905 C   0  0  0  0  0  0  0  0  0  0  0  0
   -0.4484    2.5244    0.7101 C   0  0  0  0  0  0  0  0  0  0  0  0
    5.2280   -1.4751    1.2263 C   0  0  0  0  0  0  0  0  0  0  0  0
    4.8991    0.5566    2.6642 C   0  0  0  0  0  0  0  0  0  0  0  0
   -6.2986   -0.6791    0.3750 C   0  0  0  0  0  0  0  0  0  0  0  0
   -7.4514   -0.0383   -0.3977 C   0  0  0  0  0  0  0  0  0  0  0  0
   -1.6185    2.8346    0.0169 C   0  0  0  0  0  0  0  0  0  0  0  0
   -0.5207    1.9873    1.9952 C   0  0  0  0  0  0  0  0  0  0  0  0
   -2.8610    2.6075    0.6090 C   0  0  0  0  0  0  0  0  0  0  0  0
   -1.7630    1.7602    2.5874 C   0  0  0  0  0  0  0  0  0  0  0  0
   -8.6737    0.1561    0.4851 C   0  0  0  0  0  0  0  0  0  0  0  0
   -2.9332    2.0703    1.8943 C   0  0  0  0  0  0  0  0  0  0  0  0
    1.1092    0.6656   -0.1236 H   0  0  0  0  0  0  0  0  0  0  0  0
   -0.5290   -3.2202   -1.4519 H   0  0  0  0  0  0  0  0  0  0  0  0
   -0.4805    1.2185   -1.8126 H   0  0  0  0  0  0  0  0  0  0  0  0
    1.7773   -3.2141   -0.6696 H   0  0  0  0  0  0  0  0  0  0  0  0
   -1.7721   -3.2075    0.7026 H   0  0  0  0  0  0  0  0  0  0  0  0
   -1.2481   -1.5447    1.0022 H   0  0  0  0  0  0  0  0  0  0  0  0
    2.3807    0.4624    1.5656 H   0  0  0  0  0  0  0  0  0  0  0  0
    0.8531    3.6719   -0.5490 H   0  0  0  0  0  0  0  0  0  0  0  0
    1.6108    3.0047    0.8665 H   0  0  0  0  0  0  0  0  0  0  0  0
   -2.3954   -0.7819   -1.0599 H   0  0  0  0  0  0  0  0  0  0  0  0
   -2.9006   -2.4345   -1.4002 H   0  0  0  0  0  0  0  0  0  0  0  0
    2.0922    0.2865   -3.1633 H   0  0  0  0  0  0  0  0  0  0  0  0
    0.5004    0.2802   -3.9003 H   0  0  0  0  0  0  0  0  0  0  0  0
    3.7335   -1.2451    2.7297 H   0  0  0  0  0  0  0  0  0  0  0  0
   -4.2309   -2.4677    0.6937 H   0  0  0  0  0  0  0  0  0  0  0  0
   -3.6665   -0.8516    1.1000 H   0  0  0  0  0  0  0  0  0  0  0  0
    0.0819   -4.1455    1.6915 H   0  0  0  0  0  0  0  0  0  0  0  0
    1.7078   -4.6593    1.2581 H   0  0  0  0  0  0  0  0  0  0  0  0
    0.3496   -5.0635    0.1945 H   0  0  0  0  0  0  0  0  0  0  0  0
   -5.3515   -1.5696   -1.3543 H   0  0  0  0  0  0  0  0  0  0  0  0
   -4.7677    0.0503   -0.9651 H   0  0  0  0  0  0  0  0  0  0  0  0
    3.2315    2.2011   -2.8154 H   0  0  0  0  0  0  0  0  0  0  0  0
    4.5204    2.5900   -1.6696 H   0  0  0  0  0  0  0  0  0  0  0  0
    3.0098    3.5072   -1.6136 H   0  0  0  0  0  0  0  0  0  0  0  0
    4.7769   -2.1487    0.4919 H   0  0  0  0  0  0  0  0  0  0  0  0
    5.7364   -2.1175    1.9572 H   0  0  0  0  0  0  0  0  0  0  0  0
    6.0311   -0.9126    0.7437 H   0  0  0  0  0  0  0  0  0  0  0  0
    5.5073    1.1760    2.0007 H   0  0  0  0  0  0  0  0  0  0  0  0
    5.5690    0.1795    3.4456 H   0  0  0  0  0  0  0  0  0  0  0  0
    4.1638    1.2053    3.1527 H   0  0  0  0  0  0  0  0  0  0  0  0
   -6.0198   -0.0337    1.2170 H   0  0  0  0  0  0  0  0  0  0  0  0
   -6.6243   -1.6378    0.7965 H   0  0  0  0  0  0  0  0  0  0  0  0
    0.0643    2.4728   -3.5825 H   0  0  0  0  0  0  0  0  0  0  0  0
   -7.7230   -0.6690   -1.2523 H   0  0  0  0  0  0  0  0  0  0  0  0
   -7.1371    0.9327   -0.7978 H   0  0  0  0  0  0  0  0  0  0  0  0
   -1.5795    3.2637   -0.9804 H   0  0  0  0  0  0  0  0  0  0  0  0
    0.3827    1.7394    2.5457 H   0  0  0  0  0  0  0  0  0  0  0  0
   -3.7723    2.8488    0.0697 H   0  0  0  0  0  0  0  0  0  0  0  0
   -1.8194    1.3400    3.5873 H   0  0  0  0  0  0  0  0  0  0  0  0
   -8.4444    0.8079    1.3342 H   0  0  0  0  0  0  0  0  0  0  0  0
   -9.0333   -0.8018    0.8741 H   0  0  0  0  0  0  0  0  0  0  0  0
   -9.4853    0.6166   -0.0871 H   0  0  0  0  0  0  0  0  0  0  0  0
   -3.9007    1.8915    2.3543 H   0  0  0  0  0  0  0  0  0  0  0  0
  1  9  1  0  0  0  0
  1 21  1  0  0  0  0
  2 13  1  0  0  0  0
  2 20  1  0  0  0  0
  3 10  1  0  0  0  0
  3 68  1  0  0  0  0
  4 18  2  0  0  0  0
  5 20  2  0  0  0  0
  6 21  2  0  0  0  0
  7  8  1  0  0  0  0
  7 18  1  0  0  0  0
  7 24  1  0  0  0  0
  8 10  1  0  0  0  0
  8 14  1  0  0  0  0
  8 36  1  0  0  0  0
  9 11  1  0  0  0  0
  9 12  1  0  0  0  0
  9 37  1  0  0  0  0
 10 16  1  0  0  0  0
 10 38  1  0  0  0  0
 11 20  1  0  0  0  0
 11 22  1  0  0  0  0
 11 39  1  0  0  0  0
 12 15  1  0  0  0  0
 12 40  1  0  0  0  0
 12 41  1  0  0  0  0
 13 17  1  0  0  0  0
 13 18  1  0  0  0  0
 13 42  1  0  0  0  0
 14 25  1  0  0  0  0
 14 43  1  0  0  0  0
 14 44  1  0  0  0  0
 15 19  1  0  0  0  0
 15 45  1  0  0  0  0
 15 46  1  0  0  0  0
 16 21  1  0  0  0  0
 16 47  1  0  0  0  0
 16 48  1  0  0  0  0
 17 26  1  0  0  0  0
 17 27  1  0  0  0  0
 17 49  1  0  0  0  0
 19 23  1  0  0  0  0
 19 50  1  0  0  0  0
 19 51  1  0  0  0  0
 22 52  1  0  0  0  0
 22 53  1  0  0  0  0
 22 54  1  0  0  0  0
 23 28  1  0  0  0  0
 23 55  1  0  0  0  0
 23 56  1  0  0  0  0
 24 57  1  0  0  0  0
 24 58  1  0  0  0  0
 24 59  1  0  0  0  0
 25 30  2  0  0  0  0
 25 31  1  0  0  0  0
 26 60  1  0  0  0  0
 26 61  1  0  0  0  0
 26 62  1  0  0  0  0
 27 63  1  0  0  0  0
 27 64  1  0  0  0  0
 27 65  1  0  0  0  0
 28 29  1  0  0  0  0
 28 66  1  0  0  0  0
 28 67  1  0  0  0  0
 29 34  1  0  0  0  0
 29 69  1  0  0  0  0
 29 70  1  0  0  0  0
 30 32  1  0  0  0  0
 30 71  1  0  0  0  0
 31 33  2  0  0  0  0
 31 72  1  0  0  0  0
 32 35  2  0  0  0  0
 32 73  1  0  0  0  0
 33 35  1  0  0  0  0
 33 74  1  0  0  0  0
 34 75  1  0  0  0  0
 34 76  1  0  0  0  0
 34 77  1  0  0  0  0
 35 78  1  0  0  0  0
M  END
> <PUBCHEM_COMPOUND_CID>
44286222

> <PUBCHEM_CONFORMER_RMSD>
1

> <PUBCHEM_CONFORMER_DIVERSEORDER>
1
30
128
126
45
199
107
211
179
70
173
40
214
194
109
193
210
100
119
162
208
103
140
51
79
72
171
10
11
57
108
176
137
160
102
111
134
66
21
156
167
207
90
86
74
76
157
18
178
46
118
183
94
122
184
151
15
147
26
200
203
68
131
124
48
95
19
92
36
159
80
161
98
104
190
71
64
28
34
115
187
138
174
101
16
106
182
146
196
205
63
29
164
143
59
150
112
195
35
44
78
96
192
91
169
209
25
69
75
165
198
144
41
180
202
22
42
148
133
17
84
141
12
142
37
135
215
170
73
154
121
97
152
186
31
47
65
38
163
139
188
129
204
172
177
110
153
53
3
87
56
123
185
89
105
33
23
213
2
83
55
175
116
88
27
14
158
67
114
4
58
6
13
81
212
130
82
60
9
155
24
127
43
120
5
20
191
99
32
206
145
166
85
113
168
77
50
39
117
132
201
52
93
136
61
149
189
7
62
197
181
54
49
125
8

> <PUBCHEM_MMFF94_PARTIAL_CHARGES>
30
1 -0.43
10 0.28
11 0.06
13 0.34
14 0.14
16 0.06
18 0.57
2 -0.43
20 0.66
21 0.66
24 0.3
25 -0.14
3 -0.68
30 -0.15
31 -0.15
32 -0.15
33 -0.15
35 -0.15
4 -0.57
5 -0.57
6 -0.57
68 0.4
7 -0.66
71 0.15
72 0.15
73 0.15
74 0.15
78 0.15
8 0.3
9 0.28

> <PUBCHEM_EFFECTIVE_ROTOR_COUNT>
10.8

> <PUBCHEM_PHARMACOPHORE_FEATURES>
10
1 3 acceptor
1 3 donor
1 34 hydrophobe
1 4 acceptor
1 5 acceptor
1 6 acceptor
3 12 15 19 hydrophobe
3 17 26 27 hydrophobe
3 23 28 29 hydrophobe
6 25 30 31 32 33 35 rings

> <PUBCHEM_HEAVY_ATOM_COUNT>
35

> <PUBCHEM_ATOM_DEF_STEREO_COUNT>
5

> <PUBCHEM_ATOM_UDEF_STEREO_COUNT>
0

> <PUBCHEM_BOND_DEF_STEREO_COUNT>
0

> <PUBCHEM_BOND_UDEF_STEREO_COUNT>
0

> <PUBCHEM_ISOTOPIC_ATOM_COUNT>
0

> <PUBCHEM_COMPONENT_COUNT>
1

> <PUBCHEM_CACTVS_TAUTO_COUNT>
8

> <PUBCHEM_CONFORMER_ID>
02A3C10E00000001

> <PUBCHEM_MMFF94_ENERGY>
73.1114

> <PUBCHEM_FEATURE_SELFOVERLAP>
50.76

> <PUBCHEM_SHAPE_FINGERPRINT>
10675989 125 18200046161135950201
11513181 2 17916016855309380143
11607047 403 17775003466327764342
12156800 1 18129961039006402052
12788726 201 18199200657583016000
131258 38 18045201976596698130
14464042 87 18343302574388859881
17909252 39 17273442511581805783
17974551 9 17827630675573862146
24893992 56 18340205302501801183
3052486 1 18340786865566506396
35225 105 17627753532320719032
469060 322 17604693492426349138
513532 50 16773801411528086031
8509985 295 18338232781960157271

> <PUBCHEM_SHAPE_MULTIPOLES>
680.09
12.32
4.21
2.77
26.4
1.04
-1.03
0.65
4.25
-0.58
0.21
-2.57
-0.71
-1.9

> <PUBCHEM_SHAPE_SELFOVERLAP>
1373.48

> <PUBCHEM_SHAPE_VOLUME>
393.1

> <PUBCHEM_COORDINATE_TYPE>
2
5
10

$$$$