118708527
  -OEChem-03242010103D

 50 52  0     0  0  0  0  0  0999 V2000
    1.4087   -2.1373   -1.6020 F   0  0  0  0  0  0  0  0  0  0  0  0
   -2.6077    2.3588   -0.5933 O   0  0  0  0  0  0  0  0  0  0  0  0
   -5.2781   -2.1174    1.2077 O   0  0  0  0  0  0  0  0  0  0  0  0
   -6.6761   -0.0345    0.0111 O   0  0  0  0  0  0  0  0  0  0  0  0
   -0.7074    0.7872    1.6718 O   0  0  0  0  0  0  0  0  0  0  0  0
   -0.2255   -0.2348   -0.4122 N   0  0  0  0  0  0  0  0  0  0  0  0
    7.3072    0.6700    1.3902 N   0  0  0  0  0  0  0  0  0  0  0  0
    1.1630   -0.1718   -0.2906 C   0  0  0  0  0  0  0  0  0  0  0  0
   -2.5551    0.2024    0.4565 C   0  0  0  0  0  0  0  0  0  0  0  0
   -1.0908    0.2714    0.6227 C   0  0  0  0  0  0  0  0  0  0  0  0
    3.9389   -0.0423   -0.0448 C   0  0  0  0  0  0  0  0  0  0  0  0
   -3.2567    1.2479   -0.1439 C   0  0  0  0  0  0  0  0  0  0  0  0
    1.9628   -1.1401   -0.8975 C   0  0  0  0  0  0  0  0  0  0  0  0
    1.7512    0.8613    0.4391 C   0  0  0  0  0  0  0  0  0  0  0  0
   -3.2381   -0.9265    0.9094 C   0  0  0  0  0  0  0  0  0  0  0  0
    3.3508   -1.0752   -0.7747 C   0  0  0  0  0  0  0  0  0  0  0  0
    3.1391    0.9260    0.5621 C   0  0  0  0  0  0  0  0  0  0  0  0
   -0.8739   -0.8309   -1.6237 C   0  0  0  0  0  0  0  0  0  0  0  0
   -4.6226   -1.0099    0.7615 C   0  0  0  0  0  0  0  0  0  0  0  0
   -5.3241    0.0355    0.1610 C   0  0  0  0  0  0  0  0  0  0  0  0
   -4.6412    1.1644   -0.2916 C   0  0  0  0  0  0  0  0  0  0  0  0
    5.3783    0.0244    0.0835 C   0  0  0  0  0  0  0  0  0  0  0  0
    6.2107   -0.4641   -0.9175 C   0  0  0  0  0  0  0  0  0  0  0  0
    5.9709    0.5770    1.2075 C   0  0  0  0  0  0  0  0  0  0  0  0
    7.5906   -0.3863   -0.7659 C   0  0  0  0  0  0  0  0  0  0  0  0
   -3.4063    3.3766   -1.1934 C   0  0  0  0  0  0  0  0  0  0  0  0
   -5.4356   -3.1931    0.2842 C   0  0  0  0  0  0  0  0  0  0  0  0
    8.0843    0.1846    0.3960 C   0  0  0  0  0  0  0  0  0  0  0  0
   -7.3173    1.0765   -0.6130 C   0  0  0  0  0  0  0  0  0  0  0  0
    1.1870    1.6842    0.8644 H   0  0  0  0  0  0  0  0  0  0  0  0
   -2.6948   -1.7436    1.3784 H   0  0  0  0  0  0  0  0  0  0  0  0
    3.9329   -1.8647   -1.2420 H   0  0  0  0  0  0  0  0  0  0  0  0
    3.5577    1.7704    1.1034 H   0  0  0  0  0  0  0  0  0  0  0  0
   -1.0597   -1.8908   -1.4274 H   0  0  0  0  0  0  0  0  0  0  0  0
   -1.8181   -0.3390   -1.8613 H   0  0  0  0  0  0  0  0  0  0  0  0
   -0.2237   -0.7058   -2.4949 H   0  0  0  0  0  0  0  0  0  0  0  0
   -5.1859    1.9716   -0.7558 H   0  0  0  0  0  0  0  0  0  0  0  0
    5.8272   -0.8875   -1.8415 H   0  0  0  0  0  0  0  0  0  0  0  0
    5.4003    0.9573    2.0490 H   0  0  0  0  0  0  0  0  0  0  0  0
    8.2591   -0.7548   -1.5356 H   0  0  0  0  0  0  0  0  0  0  0  0
   -2.7257    4.1818   -1.4903 H   0  0  0  0  0  0  0  0  0  0  0  0
   -4.1132    3.8131   -0.4793 H   0  0  0  0  0  0  0  0  0  0  0  0
   -3.8919    3.0247   -2.1102 H   0  0  0  0  0  0  0  0  0  0  0  0
   -5.9806   -3.9978    0.7852 H   0  0  0  0  0  0  0  0  0  0  0  0
   -4.4588   -3.5744   -0.0302 H   0  0  0  0  0  0  0  0  0  0  0  0
   -6.0119   -2.8705   -0.5887 H   0  0  0  0  0  0  0  0  0  0  0  0
    9.1531    0.2705    0.5619 H   0  0  0  0  0  0  0  0  0  0  0  0
   -8.3879    0.8486   -0.6485 H   0  0  0  0  0  0  0  0  0  0  0  0
   -6.9897    1.2039   -1.6506 H   0  0  0  0  0  0  0  0  0  0  0  0
   -7.2114    1.9918   -0.0204 H   0  0  0  0  0  0  0  0  0  0  0  0
  1 13  1  0  0  0  0
  2 12  1  0  0  0  0
  2 26  1  0  0  0  0
  3 19  1  0  0  0  0
  3 27  1  0  0  0  0
  4 20  1  0  0  0  0
  4 29  1  0  0  0  0
  5 10  2  0  0  0  0
  6  8  1  0  0  0  0
  6 10  1  0  0  0  0
  6 18  1  0  0  0  0
  7 24  1  0  0  0  0
  7 28  2  0  0  0  0
  8 13  2  0  0  0  0
  8 14  1  0  0  0  0
  9 10  1  0  0  0  0
  9 12  1  0  0  0  0
  9 15  2  0  0  0  0
 11 16  2  0  0  0  0
 11 17  1  0  0  0  0
 11 22  1  0  0  0  0
 12 21  2  0  0  0  0
 13 16  1  0  0  0  0
 14 17  2  0  0  0  0
 14 30  1  0  0  0  0
 15 19  1  0  0  0  0
 15 31  1  0  0  0  0
 16 32  1  0  0  0  0
 17 33  1  0  0  0  0
 18 34  1  0  0  0  0
 18 35  1  0  0  0  0
 18 36  1  0  0  0  0
 19 20  2  0  0  0  0
 20 21  1  0  0  0  0
 21 37  1  0  0  0  0
 22 23  1  0  0  0  0
 22 24  2  0  0  0  0
 23 25  2  0  0  0  0
 23 38  1  0  0  0  0
 24 39  1  0  0  0  0
 25 28  1  0  0  0  0
 25 40  1  0  0  0  0
 26 41  1  0  0  0  0
 26 42  1  0  0  0  0
 26 43  1  0  0  0  0
 27 44  1  0  0  0  0
 27 45  1  0  0  0  0
 27 46  1  0  0  0  0
 28 47  1  0  0  0  0
 29 48  1  0  0  0  0
 29 49  1  0  0  0  0
 29 50  1  0  0  0  0
M  END
> <PUBCHEM_COMPOUND_CID>
118708527

> <PUBCHEM_CONFORMER_RMSD>
0.8

> <PUBCHEM_CONFORMER_DIVERSEORDER>
1
32
76
159
139
90
167
170
83
81
157
177
164
146
142
54
49
57
88
166
150
144
174
165
102
122
9
141
160
135
45
125
60
51
163
131
132
140
169
62
173
15
22
148
73
152
77
64
100
154
30
114
94
5
69
123
106
71
107
180
116
143
31
75
113
65
134
129
11
111
182
26
93
13
162
124
145
109
12
104
27
82
10
133
120
99
72
128
80
53
58
97
36
130
161
178
8
155
118
3
39
50
149
138
19
108
41
66
158
46
117
14
172
151
110
91
176
70
78
101
105
127
35
37
63
136
20
171
44
181
119
74
137
153
42
28
121
33
85
126
95
52
168
179
40
98
29
25
79
175
55
61
7
38
89
156
48
24
16
96
68
47
21
43
147
92
34
56
86
18
23
6
84
115
112
4
59
17
2
87
67
103

> <PUBCHEM_MMFF94_PARTIAL_CHARGES>
36
1 -0.19
10 0.54
12 0.08
13 0.19
14 -0.15
15 -0.15
16 -0.15
17 -0.15
18 0.3
19 0.08
2 -0.36
20 0.08
21 -0.15
23 -0.15
24 0.16
25 -0.15
26 0.28
27 0.28
28 0.16
29 0.28
3 -0.36
30 0.15
31 0.15
32 0.15
33 0.15
37 0.15
38 0.15
39 0.15
4 -0.36
40 0.15
47 0.15
5 -0.57
6 -0.48
7 -0.62
8 0.12
9 0.09

> <PUBCHEM_EFFECTIVE_ROTOR_COUNT>
7

> <PUBCHEM_PHARMACOPHORE_FEATURES>
8
1 2 acceptor
1 3 acceptor
1 4 acceptor
1 5 acceptor
1 7 acceptor
6 7 22 23 24 25 28 rings
6 8 11 13 14 16 17 rings
6 9 12 15 19 20 21 rings

> <PUBCHEM_HEAVY_ATOM_COUNT>
29

> <PUBCHEM_ATOM_DEF_STEREO_COUNT>
0

> <PUBCHEM_ATOM_UDEF_STEREO_COUNT>
0

> <PUBCHEM_BOND_DEF_STEREO_COUNT>
0

> <PUBCHEM_BOND_UDEF_STEREO_COUNT>
0

> <PUBCHEM_ISOTOPIC_ATOM_COUNT>
0

> <PUBCHEM_COMPONENT_COUNT>
1

> <PUBCHEM_CACTVS_TAUTO_COUNT>
1

> <PUBCHEM_CONFORMER_ID>
0713592F00000001

> <PUBCHEM_MMFF94_ENERGY>
141.1618

> <PUBCHEM_FEATURE_SELFOVERLAP>
40.604

> <PUBCHEM_SHAPE_FINGERPRINT>
10 15 18341607149308348520
10299344 5 16877661262597116154
10411042 1 18044663238328439675
10835480 77 18272088237050387745
11315181 36 17312828186166942725
11646440 116 17275108349386923648
11719270 70 18343865498710257334
11963148 33 18409164437648722162
11991303 11 18060138795136999182
12107698 1 18040997358269594500
12236239 1 16008752419831987648
12838862 33 17702929384273941744
13533116 47 16008740304678941816
13911987 19 17346025676541518021
13947920 75 17385723608028157297
14068700 675 17822576109431484501
14251764 18 16515405170719919496
14849402 71 15410607155741976298
14856354 85 18113344132117743983
15183329 4 18040437672596436528
15419008 47 18342452643084912216
15849732 13 18343865528811594596
17686467 74 17749675215776861604
18608769 82 18341894125336623542
18927931 339 18260552242856366843
19303781 99 17977099391089780159
19489759 90 18040719155730461025
21033648 29 18059840745448956472
21521721 280 17060339652306975474
21623969 137 17775574143185612110
21792961 116 18200877275766330342
22224240 67 17988922284444185150
23081809 10 16950286192019262016
23402539 116 18040715896509581655
23559900 14 18408884053587384177
23569943 247 15050355318843023262
249057 25 17458356229852970420
249057 3 18186521025457150117
335352 9 17632861928590529324
3545911 37 17917993871826103270
397830 11 18128530660288444386
4073 2 18410299107514078395
4280585 95 18187644739310061125
5104073 3 18129108831353196898
59755656 215 18202006503914456254

> <PUBCHEM_SHAPE_MULTIPOLES>
556.09
21.51
2.23
1.27
19.38
0.09
-0.04
-0.54
2.01
-4.98
-0.51
0.58
-0.1
2.34

> <PUBCHEM_SHAPE_SELFOVERLAP>
1208.12

> <PUBCHEM_SHAPE_VOLUME>
306.1

> <PUBCHEM_COORDINATE_TYPE>
2
5
10

$$$$