11
 OpenBabel03302012423D

 52 52  0  0  0  0  0  0  0  0999 V2000
    2.4052   -2.4985   -0.6865 C   0  0  0  0  0  0  0  0  0  0  0  0
    1.9557   -1.2429   -1.5424 C   0  0  0  0  0  0  0  0  0  0  0  0
    2.7930   -1.3645   -2.8372 C   0  0  0  0  0  0  0  0  0  0  0  0
    0.4648   -1.4066   -1.8779 C   0  0  0  0  0  0  0  0  0  0  0  0
    2.1091    0.1382   -0.7900 C   0  0  0  0  0  0  0  0  0  0  0  0
    2.3789   -0.0345    0.6321 C   0  0  0  0  0  0  0  0  0  0  0  0
    1.2765   -0.0807    1.4049 C   0  0  0  0  0  0  0  0  0  0  0  0
    1.2568   -1.1716    2.4016 C   0  0  0  0  0  0  0  0  0  0  0  0
    2.3489   -1.5200    3.1759 C   0  0  0  0  0  0  0  0  0  0  0  0
    2.2776   -2.8131    3.6911 C   0  0  0  0  0  0  0  0  0  0  0  0
    1.1540   -3.5184    3.2790 C   0  0  0  0  0  0  0  0  0  0  0  0
    0.9128   -4.9447    3.5860 C   0  0  0  0  0  0  0  0  0  0  0  0
    1.6960   -5.5301    4.3316 O   0  0  0  0  0  0  0  0  0  0  0  0
   -0.1056   -5.6382    3.0451 O   0  0  0  0  0  0  0  0  0  0  0  0
    0.2031   -2.5006    2.3075 S   0  0  0  0  0  0  0  0  0  0  0  0
    0.7051    1.2453    1.7084 C   0  0  0  0  0  0  0  0  0  0  0  0
    0.8067    2.3002    0.8521 C   0  0  0  0  0  0  0  0  0  0  0  0
    0.7798    3.7278    1.4688 C   0  0  0  0  0  0  0  0  0  0  0  0
    1.8289    3.8233    2.6190 C   0  0  0  0  0  0  0  0  0  0  0  0
    1.1933    4.7835    0.4208 C   0  0  0  0  0  0  0  0  0  0  0  0
   -0.6013    4.1041    2.0411 C   0  0  0  0  0  0  0  0  0  0  0  0
    1.1785    1.8036   -1.2379 Te  0  3  0  0  0  0  0  0  0  0  0  0
    3.7234    2.3135    0.0489 F   0  0  0  0  0  0  0  0  0  0  0  0
    5.3491    1.8790   -0.1652 P   0  5  0  0  0  0  0  0  0  0  0  0
    7.0038    1.4751   -0.3639 F   0  0  0  0  0  0  0  0  0  0  0  0
    5.4458    2.9853   -1.4742 F   0  0  0  0  0  0  0  0  0  0  0  0
    4.9235    0.6296   -1.2700 F   0  0  0  0  0  0  0  0  0  0  0  0
    5.7606    3.1226    0.9368 F   0  0  0  0  0  0  0  0  0  0  0  0
    5.2301    0.7631    1.1360 F   0  0  0  0  0  0  0  0  0  0  0  0
    1.9581   -3.4411   -1.0470 H   0  0  0  0  0  0  0  0  0  0  0  0
    2.1088   -2.5067    0.3705 H   0  0  0  0  0  0  0  0  0  0  0  0
    3.5162   -2.6049   -0.6815 H   0  0  0  0  0  0  0  0  0  0  0  0
    2.6295   -2.3741   -3.2875 H   0  0  0  0  0  0  0  0  0  0  0  0
    3.8811   -1.3001   -2.6131 H   0  0  0  0  0  0  0  0  0  0  0  0
    2.5394   -0.6041   -3.5977 H   0  0  0  0  0  0  0  0  0  0  0  0
    0.2518   -2.4212   -2.2748 H   0  0  0  0  0  0  0  0  0  0  0  0
    0.1607   -0.6716   -2.6526 H   0  0  0  0  0  0  0  0  0  0  0  0
   -0.1552   -1.2465   -0.9689 H   0  0  0  0  0  0  0  0  0  0  0  0
    3.1474   -0.7652    0.7652 H   0  0  0  0  0  0  0  0  0  0  0  0
    3.1965   -0.8720    3.3056 H   0  0  0  0  0  0  0  0  0  0  0  0
    3.0708   -3.2408    4.2833 H   0  0  0  0  0  0  0  0  0  0  0  0
   -0.7171   -5.2475    2.4062 H   0  0  0  0  0  0  0  0  0  0  0  0
    0.4433    1.3883    2.7599 H   0  0  0  0  0  0  0  0  0  0  0  0
    2.8442    3.5602    2.2496 H   0  0  0  0  0  0  0  0  0  0  0  0
    1.5916    3.1374    3.4584 H   0  0  0  0  0  0  0  0  0  0  0  0
    1.8721    4.8505    3.0488 H   0  0  0  0  0  0  0  0  0  0  0  0
    2.2151    4.5674    0.0386 H   0  0  0  0  0  0  0  0  0  0  0  0
    1.2241    5.8015    0.8775 H   0  0  0  0  0  0  0  0  0  0  0  0
    0.4863    4.8070   -0.4331 H   0  0  0  0  0  0  0  0  0  0  0  0
   -0.9071    3.3985    2.8407 H   0  0  0  0  0  0  0  0  0  0  0  0
   -1.3679    4.0991    1.2385 H   0  0  0  0  0  0  0  0  0  0  0  0
   -0.5709    5.1262    2.4879 H   0  0  0  0  0  0  0  0  0  0  0  0
  1  2  1  0  0  0  0
  1 30  1  0  0  0  0
  1 31  1  0  0  0  0
  1 32  1  0  0  0  0
  2  3  1  0  0  0  0
  2  4  1  0  0  0  0
  2  5  1  0  0  0  0
  3 33  1  0  0  0  0
  3 34  1  0  0  0  0
  3 35  1  0  0  0  0
  4 36  1  0  0  0  0
  4 37  1  0  0  0  0
  4 38  1  0  0  0  0
  5  6  1  0  0  0  0
  5 22  2  0  0  0  0
  6  7  2  0  0  0  0
  6 39  1  0  0  0  0
  7  8  1  0  0  0  0
  7 16  1  0  0  0  0
  8  9  2  0  0  0  0
  8 15  1  0  0  0  0
  9 10  1  0  0  0  0
  9 40  1  0  0  0  0
 10 11  2  0  0  0  0
 10 41  1  0  0  0  0
 11 12  1  0  0  0  0
 11 15  1  0  0  0  0
 12 13  2  0  0  0  0
 12 14  1  0  0  0  0
 14 42  1  0  0  0  0
 16 17  2  0  0  0  0
 16 43  1  0  0  0  0
 17 18  1  0  0  0  0
 17 22  1  0  0  0  0
 18 19  1  0  0  0  0
 18 20  1  0  0  0  0
 18 21  1  0  0  0  0
 19 44  1  0  0  0  0
 19 45  1  0  0  0  0
 19 46  1  0  0  0  0
 20 47  1  0  0  0  0
 20 48  1  0  0  0  0
 20 49  1  0  0  0  0
 21 50  1  0  0  0  0
 21 51  1  0  0  0  0
 21 52  1  0  0  0  0
 23 24  1  0  0  0  0
 24 25  1  0  0  0  0
 24 26  1  0  0  0  0
 24 27  1  0  0  0  0
 24 28  1  0  0  0  0
 24 29  1  0  0  0  0
M  CHG  2  22   1  24  -1
M  END
$$$$