71717292
  -OEChem-03242010103D

 78 79  0     1  0  0  0  0  0999 V2000
   -1.3894    0.0163   -0.9804 O   0  0  0  0  0  0  0  0  0  0  0  0
    0.3283    1.9081    0.0979 O   0  0  0  0  0  0  0  0  0  0  0  0
    0.9270   -3.7939    0.5701 O   0  0  0  0  0  0  0  0  0  0  0  0
    1.9498    0.0940    2.1096 O   0  0  0  0  0  0  0  0  0  0  0  0
    0.5819    3.8107   -1.1591 O   0  0  0  0  0  0  0  0  0  0  0  0
   -1.5361   -0.6387    1.2293 O   0  0  0  0  0  0  0  0  0  0  0  0
    2.1082   -0.3164   -0.1736 N   0  0  0  0  0  0  0  0  0  0  0  0
    2.1328   -1.7888   -0.0238 C   0  0  2  0  0  0  0  0  0  0  0  0
   -2.1033    1.2545   -0.7361 C   0  0  1  0  0  0  0  0  0  0  0  0
    0.7982   -2.3691    0.5108 C   0  0  1  0  0  0  0  0  0  0  0  0
   -1.3897    2.4217   -1.4670 C   0  0  1  0  0  0  0  0  0  0  0  0
   -3.5409    1.0561   -1.2083 C   0  0  0  0  0  0  0  0  0  0  0  0
    1.6417    1.9852    0.6800 C   0  0  1  0  0  0  0  0  0  0  0  0
    3.3446   -2.2505    0.7975 C   0  0  0  0  0  0  0  0  0  0  0  0
   -4.3448    0.2386   -0.1998 C   0  0  0  0  0  0  0  0  0  0  0  0
   -0.4119   -2.0467   -0.3825 C   0  0  0  0  0  0  0  0  0  0  0  0
    1.5664    2.8155    1.9529 C   0  0  0  0  0  0  0  0  0  0  0  0
    1.9307    0.5117    0.9482 C   0  0  0  0  0  0  0  0  0  0  0  0
   -5.8004    0.0205   -0.6225 C   0  0  0  0  0  0  0  0  0  0  0  0
   -0.0576    2.8196   -0.8280 C   0  0  0  0  0  0  0  0  0  0  0  0
   -1.1690   -0.8202    0.0756 C   0  0  0  0  0  0  0  0  0  0  0  0
   -1.1383    2.1410   -2.9493 C   0  0  0  0  0  0  0  0  0  0  0  0
   -6.5908   -0.8600    0.3481 C   0  0  0  0  0  0  0  0  0  0  0  0
    2.2785    0.1658   -1.5459 C   0  0  0  0  0  0  0  0  0  0  0  0
    4.6297   -1.7842    0.1799 C   0  0  0  0  0  0  0  0  0  0  0  0
    1.8064    4.2926    1.6465 C   0  0  0  0  0  0  0  0  0  0  0  0
    0.2168    2.6231    2.6412 C   0  0  0  0  0  0  0  0  0  0  0  0
   -8.0289   -1.0633   -0.1347 C   0  0  0  0  0  0  0  0  0  0  0  0
   -8.8101   -1.9735    0.8128 C   0  0  0  0  0  0  0  0  0  0  0  0
    5.2826   -2.5826   -0.7592 C   0  0  0  0  0  0  0  0  0  0  0  0
    5.1719   -0.5521    0.5452 C   0  0  0  0  0  0  0  0  0  0  0  0
    6.4777   -2.1489   -1.3331 C   0  0  0  0  0  0  0  0  0  0  0  0
    6.3669   -0.1183   -0.0288 C   0  0  0  0  0  0  0  0  0  0  0  0
  -10.2488   -2.1511    0.3547 C   0  0  0  0  0  0  0  0  0  0  0  0
    7.0199   -0.9167   -0.9679 C   0  0  0  0  0  0  0  0  0  0  0  0
    2.2662   -2.2128   -1.0307 H   0  0  0  0  0  0  0  0  0  0  0  0
   -2.1107    1.4904    0.3363 H   0  0  0  0  0  0  0  0  0  0  0  0
    0.6274   -2.0296    1.5378 H   0  0  0  0  0  0  0  0  0  0  0  0
   -2.0287    3.3098   -1.3723 H   0  0  0  0  0  0  0  0  0  0  0  0
   -4.0321    2.0283   -1.3345 H   0  0  0  0  0  0  0  0  0  0  0  0
   -3.5598    0.5438   -2.1777 H   0  0  0  0  0  0  0  0  0  0  0  0
    2.3911    2.3916   -0.0049 H   0  0  0  0  0  0  0  0  0  0  0  0
    3.3676   -3.3461    0.8607 H   0  0  0  0  0  0  0  0  0  0  0  0
    3.2898   -1.9117    1.8381 H   0  0  0  0  0  0  0  0  0  0  0  0
   -3.8839   -0.7464   -0.0698 H   0  0  0  0  0  0  0  0  0  0  0  0
   -4.3276    0.7341    0.7786 H   0  0  0  0  0  0  0  0  0  0  0  0
   -1.1358   -2.8712   -0.3785 H   0  0  0  0  0  0  0  0  0  0  0  0
   -0.0995   -1.9322   -1.4266 H   0  0  0  0  0  0  0  0  0  0  0  0
    2.3644    2.5045    2.6392 H   0  0  0  0  0  0  0  0  0  0  0  0
   -6.2962    0.9947   -0.7158 H   0  0  0  0  0  0  0  0  0  0  0  0
   -5.8171   -0.4395   -1.6186 H   0  0  0  0  0  0  0  0  0  0  0  0
   -0.4598    1.2931   -3.0893 H   0  0  0  0  0  0  0  0  0  0  0  0
   -0.6769    3.0069   -3.4371 H   0  0  0  0  0  0  0  0  0  0  0  0
   -2.0718    1.9262   -3.4779 H   0  0  0  0  0  0  0  0  0  0  0  0
   -6.5955   -0.3975    1.3424 H   0  0  0  0  0  0  0  0  0  0  0  0
   -6.0941   -1.8329    0.4455 H   0  0  0  0  0  0  0  0  0  0  0  0
    3.1769   -0.2868   -1.9758 H   0  0  0  0  0  0  0  0  0  0  0  0
    2.3829    1.2453   -1.6234 H   0  0  0  0  0  0  0  0  0  0  0  0
    1.4092   -0.1442   -2.1319 H   0  0  0  0  0  0  0  0  0  0  0  0
   -0.6093    3.0717    2.0789 H   0  0  0  0  0  0  0  0  0  0  0  0
   -0.0182    1.5688    2.8149 H   0  0  0  0  0  0  0  0  0  0  0  0
    0.2298    3.1137    3.6215 H   0  0  0  0  0  0  0  0  0  0  0  0
    2.7250    4.4381    1.0687 H   0  0  0  0  0  0  0  0  0  0  0  0
    0.9739    4.7453    1.1018 H   0  0  0  0  0  0  0  0  0  0  0  0
    1.9158    4.8547    2.5811 H   0  0  0  0  0  0  0  0  0  0  0  0
   -8.0222   -1.5018   -1.1401 H   0  0  0  0  0  0  0  0  0  0  0  0
   -8.5306   -0.0908   -0.2096 H   0  0  0  0  0  0  0  0  0  0  0  0
    0.1245   -4.1431    0.9939 H   0  0  0  0  0  0  0  0  0  0  0  0
   -8.8056   -1.5502    1.8240 H   0  0  0  0  0  0  0  0  0  0  0  0
   -8.3258   -2.9553    0.8698 H   0  0  0  0  0  0  0  0  0  0  0  0
    4.8693   -3.5435   -1.0540 H   0  0  0  0  0  0  0  0  0  0  0  0
    4.6903    0.0761    1.2883 H   0  0  0  0  0  0  0  0  0  0  0  0
    6.9858   -2.7703   -2.0648 H   0  0  0  0  0  0  0  0  0  0  0  0
    6.7912    0.8393    0.2586 H   0  0  0  0  0  0  0  0  0  0  0  0
  -10.2902   -2.6012   -0.6423 H   0  0  0  0  0  0  0  0  0  0  0  0
  -10.7711   -1.1896    0.3200 H   0  0  0  0  0  0  0  0  0  0  0  0
  -10.7886   -2.8060    1.0458 H   0  0  0  0  0  0  0  0  0  0  0  0
    7.9507   -0.5792   -1.4142 H   0  0  0  0  0  0  0  0  0  0  0  0
  1  9  1  0  0  0  0
  1 21  1  0  0  0  0
  2 13  1  0  0  0  0
  2 20  1  0  0  0  0
  3 10  1  0  0  0  0
  3 68  1  0  0  0  0
  4 18  2  0  0  0  0
  5 20  2  0  0  0  0
  6 21  2  0  0  0  0
  7  8  1  0  0  0  0
  7 18  1  0  0  0  0
  7 24  1  0  0  0  0
  8 10  1  0  0  0  0
  8 14  1  0  0  0  0
  8 36  1  0  0  0  0
  9 11  1  0  0  0  0
  9 12  1  0  0  0  0
  9 37  1  0  0  0  0
 10 16  1  0  0  0  0
 10 38  1  0  0  0  0
 11 20  1  0  0  0  0
 11 22  1  0  0  0  0
 11 39  1  0  0  0  0
 12 15  1  0  0  0  0
 12 40  1  0  0  0  0
 12 41  1  0  0  0  0
 13 17  1  0  0  0  0
 13 18  1  0  0  0  0
 13 42  1  0  0  0  0
 14 25  1  0  0  0  0
 14 43  1  0  0  0  0
 14 44  1  0  0  0  0
 15 19  1  0  0  0  0
 15 45  1  0  0  0  0
 15 46  1  0  0  0  0
 16 21  1  0  0  0  0
 16 47  1  0  0  0  0
 16 48  1  0  0  0  0
 17 26  1  0  0  0  0
 17 27  1  0  0  0  0
 17 49  1  0  0  0  0
 19 23  1  0  0  0  0
 19 50  1  0  0  0  0
 19 51  1  0  0  0  0
 22 52  1  0  0  0  0
 22 53  1  0  0  0  0
 22 54  1  0  0  0  0
 23 28  1  0  0  0  0
 23 55  1  0  0  0  0
 23 56  1  0  0  0  0
 24 57  1  0  0  0  0
 24 58  1  0  0  0  0
 24 59  1  0  0  0  0
 25 30  2  0  0  0  0
 25 31  1  0  0  0  0
 26 63  1  0  0  0  0
 26 64  1  0  0  0  0
 26 65  1  0  0  0  0
 27 60  1  0  0  0  0
 27 61  1  0  0  0  0
 27 62  1  0  0  0  0
 28 29  1  0  0  0  0
 28 66  1  0  0  0  0
 28 67  1  0  0  0  0
 29 34  1  0  0  0  0
 29 69  1  0  0  0  0
 29 70  1  0  0  0  0
 30 32  1  0  0  0  0
 30 71  1  0  0  0  0
 31 33  2  0  0  0  0
 31 72  1  0  0  0  0
 32 35  2  0  0  0  0
 32 73  1  0  0  0  0
 33 35  1  0  0  0  0
 33 74  1  0  0  0  0
 34 75  1  0  0  0  0
 34 76  1  0  0  0  0
 34 77  1  0  0  0  0
 35 78  1  0  0  0  0
M  END
> <PUBCHEM_COMPOUND_CID>
71717292

> <PUBCHEM_CONFORMER_RMSD>
1

> <PUBCHEM_CONFORMER_DIVERSEORDER>
2
6
206
176
233
244
209
16
49
26
182
84
39
113
140
150
187
271
111
161
259
227
4
219
91
57
228
195
229
92
5
200
222
164
258
29
216
118
114
153
196
130
207
217
273
96
32
220
171
80
144
262
223
104
69
188
251
240
88
116
131
238
97
54
157
274
79
20
241
155
66
30
70
132
246
76
193
56
112
192
147
74
172
108
154
254
125
245
10
272
67
174
17
55
243
89
123
202
81
163
224
109
102
93
248
213
235
121
165
124
72
142
203
110
34
270
85
115
90
82
230
146
119
36
156
78
129
77
269
145
48
65
158
103
51
175
98
19
194
186
128
268
105
28
149
177
117
256
40
134
261
24
260
205
253
232
170
63
167
250
231
215
33
52
46
58
173
160
47
239
185
162
37
15
1
183
25
168
264
204
141
265
199
87
107
184
136
43
60
210
237
212
53
86
22
151
50
266
234
44
71
169
211
95
64
45
257
221
143
267
133
73
218
249
101
242
41
190
198
120
21
255
27
68
42
197
226
138
252
247
8
201
152
225
35
263
178
179
181
139
208
189
11
180
99
12
75
166
236
14
148
191
214
9
18
13
137
126
100
23
106
61
59
62
135
38
31
7
122
127
83
94
159
3

> <PUBCHEM_MMFF94_PARTIAL_CHARGES>
30
1 -0.43
10 0.28
11 0.06
13 0.34
14 0.14
16 0.06
18 0.57
2 -0.43
20 0.66
21 0.66
24 0.3
25 -0.14
3 -0.68
30 -0.15
31 -0.15
32 -0.15
33 -0.15
35 -0.15
4 -0.57
5 -0.57
6 -0.57
68 0.4
7 -0.66
71 0.15
72 0.15
73 0.15
74 0.15
78 0.15
8 0.3
9 0.28

> <PUBCHEM_EFFECTIVE_ROTOR_COUNT>
10.8

> <PUBCHEM_PHARMACOPHORE_FEATURES>
10
1 3 acceptor
1 3 donor
1 34 hydrophobe
1 4 acceptor
1 5 acceptor
1 6 acceptor
3 12 15 19 hydrophobe
3 17 26 27 hydrophobe
3 23 28 29 hydrophobe
6 25 30 31 32 33 35 rings

> <PUBCHEM_HEAVY_ATOM_COUNT>
35

> <PUBCHEM_ATOM_DEF_STEREO_COUNT>
4

> <PUBCHEM_ATOM_UDEF_STEREO_COUNT>
1

> <PUBCHEM_BOND_DEF_STEREO_COUNT>
0

> <PUBCHEM_BOND_UDEF_STEREO_COUNT>
0

> <PUBCHEM_ISOTOPIC_ATOM_COUNT>
0

> <PUBCHEM_COMPONENT_COUNT>
1

> <PUBCHEM_CACTVS_TAUTO_COUNT>
8

> <PUBCHEM_CONFORMER_ID>
044651AC00000002

> <PUBCHEM_MMFF94_ENERGY>
75.1007

> <PUBCHEM_FEATURE_SELFOVERLAP>
50.76

> <PUBCHEM_SHAPE_FINGERPRINT>
10076449 9 18412269419581896766
10165383 225 18266177429632180120
12035758 1 18198598056660050992
12522641 24 18130224965200272873
12788726 201 16765893478856792736
13673619 4 18409728448210255861
14400156 188 18410011048600689419
14955137 171 17989202642207062015
15064986 96 18190456258713447337
15439362 3 18197493146063971272
18608769 82 18335417976237812495
21049683 271 18408044017655159252
23559900 14 18187641427800449013
23569917 315 18192994817269262762
3178227 256 18343301479172751315
404807 78 17531536472402288739
4093350 32 16559029424582310616
4112364 45 15841545327689687209
437815 12 18341897380932032859
469060 322 18044952181351366524
9962374 69 18130780209982936927

> <PUBCHEM_SHAPE_MULTIPOLES>
680.09
19.25
4.44
1.9
45.66
2.88
0.08
-21.9
0.13
-2.22
-0.96
-0.5
1.86
2.66

> <PUBCHEM_SHAPE_SELFOVERLAP>
1374.856

> <PUBCHEM_SHAPE_VOLUME>
393.2

> <PUBCHEM_COORDINATE_TYPE>
2
5
10

$$$$