91
 OpenBabel03292021543D

165167  0  0  1  0  0  0  0  0999 V2000
    7.3225   -3.3864   -1.1627 C   0  0  0  0  0  0  0  0  0  0  0  0
    7.4358   -4.8827   -1.5500 C   0  0  0  0  0  0  0  0  0  0  0  0
    6.1440   -5.8186   -1.5851 C   0  0  2  0  0  0  0  0  0  0  0  0
    5.1169   -5.2018   -0.6027 C   0  0  0  0  0  0  0  0  0  0  0  0
    5.3204   -6.1379   -3.0698 C   0  0  2  0  0  0  0  0  0  0  0  0
    4.9600   -7.6677   -4.0075 N   0  0  0  0  0  0  0  0  0  0  0  0
    5.7907   -9.1756   -4.7969 C   0  0  0  0  0  0  0  0  0  0  0  0
    6.8801   -9.6964   -4.4564 O   0  0  0  0  0  0  0  0  0  0  0  0
    5.3748  -10.2996   -6.1797 C   0  0  2  0  0  0  0  0  0  0  0  0
    6.6079  -10.3925   -7.1089 C   0  0  0  0  0  0  0  0  0  0  0  0
    6.1201  -10.0800   -8.5092 C   0  0  0  0  0  0  0  0  0  0  0  0
    4.6442  -10.4198   -8.5002 C   0  0  0  0  0  0  0  0  0  0  0  0
    4.3259  -10.8019   -7.1237 N   0  0  0  0  0  0  0  0  0  0  0  0
    3.6233  -12.0184   -7.0745 C   0  0  0  0  0  0  0  0  0  0  0  0
    2.7863  -12.2664   -7.9570 O   0  0  0  0  0  0  0  0  0  0  0  0
    3.8793  -13.1084   -5.9969 C   0  0  1  0  0  0  0  0  0  0  0  0
    5.1825  -13.9118   -6.2629 C   0  0  0  0  0  0  0  0  0  0  0  0
    5.0906  -14.7196   -7.4414 O   0  0  0  0  0  0  0  0  0  0  0  0
    3.6478  -12.5454   -4.6369 N   0  0  0  0  0  0  0  0  0  0  0  0
    2.2453  -12.3445   -4.2908 C   0  0  0  0  0  0  0  0  0  0  0  0
    4.7238  -12.2576   -3.8183 C   0  0  0  0  0  0  0  0  0  0  0  0
    5.7918  -12.8428   -4.0041 O   0  0  0  0  0  0  0  0  0  0  0  0
    4.6719  -11.1573   -2.7324 C   0  0  2  0  0  0  0  0  0  0  0  0
    4.5453   -9.6315   -3.0850 C   0  0  0  0  0  0  0  0  0  0  0  0
    3.5735   -9.1934   -4.6818 C   0  0  0  0  0  0  0  0  0  0  0  0
    4.3438   -8.0005   -6.0022 C   0  0  0  0  0  0  0  0  0  0  0  0
    6.0718   -7.2361   -5.6946 C   0  0  0  0  0  0  0  0  0  0  0  0
    7.0123   -7.5619   -4.0138 C   0  0  0  0  0  0  0  0  0  0  0  0
    6.1546   -8.6939   -2.6520 C   0  0  0  0  0  0  0  0  0  0  0  0
    5.7148  -11.4850   -1.7187 N   0  0  0  0  0  0  0  0  0  0  0  0
    7.0545  -11.7636   -1.6794 C   0  0  0  0  0  0  0  0  0  0  0  0
    7.3769  -12.2078   -0.5592 O   0  0  0  0  0  0  0  0  0  0  0  0
    8.2111  -11.5355   -2.7927 C   0  0  2  0  0  0  0  0  0  0  0  0
    9.1019  -12.8362   -2.8485 C   0  0  0  0  0  0  0  0  0  0  0  0
   10.3585  -12.6816   -3.7114 C   0  0  0  0  0  0  0  0  0  0  0  0
    8.3260  -14.0478   -3.3842 C   0  0  0  0  0  0  0  0  0  0  0  0
    9.0959  -10.3026   -2.4844 N   0  0  0  0  0  0  0  0  0  0  0  0
    9.5100  -10.2150   -1.0927 C   0  0  0  0  0  0  0  0  0  0  0  0
    9.6542   -9.4980   -3.5239 C   0  0  0  0  0  0  0  0  0  0  0  0
    9.6872   -9.9172   -4.6937 O   0  0  0  0  0  0  0  0  0  0  0  0
   10.1640   -7.9507   -3.3203 C   0  0  1  0  0  0  0  0  0  0  0  0
   11.0475   -7.7342   -2.0589 C   0  0  1  0  0  0  0  0  0  0  0  0
   12.3807   -8.4755   -2.1494 C   0  0  0  0  0  0  0  0  0  0  0  0
   11.2421   -6.2709   -1.6127 C   0  0  0  0  0  0  0  0  0  0  0  0
   11.6614   -6.1868   -0.1362 C   0  0  0  0  0  0  0  0  0  0  0  0
   10.8551   -7.4598   -4.5760 O   0  0  0  0  0  0  0  0  0  0  0  0
   10.5752   -6.4152   -5.4436 C   0  0  0  0  0  0  0  0  0  0  0  0
   11.4377   -5.5530   -5.6387 O   0  0  0  0  0  0  0  0  0  0  0  0
    9.3257   -6.4842   -6.4103 C   0  0  2  0  0  0  0  0  0  0  0  0
    9.4963   -7.4688   -7.6385 C   0  0  0  0  0  0  0  0  0  0  0  0
    8.3986   -7.2453   -8.7163 C   0  0  0  0  0  0  0  0  0  0  0  0
   10.8400   -7.4546   -8.3642 C   0  0  0  0  0  0  0  0  0  0  0  0
    9.3164   -8.8296   -7.2326 O   0  0  0  0  0  0  0  0  0  0  0  0
    8.6290   -5.1703   -6.8588 N   0  0  0  0  0  0  0  0  0  0  0  0
    9.3422   -4.2932   -7.7748 C   0  0  0  0  0  0  0  0  0  0  0  0
    7.6807   -4.5861   -5.9973 C   0  0  0  0  0  0  0  0  0  0  0  0
    7.7797   -4.9490   -4.8281 O   0  0  0  0  0  0  0  0  0  0  0  0
    6.5036   -3.5839   -6.5414 C   0  0  2  0  0  0  0  0  0  0  0  0
    6.6356   -2.1286   -5.9908 C   0  0  0  0  0  0  0  0  0  0  0  0
    8.0766   -1.5922   -5.7985 C   0  0  0  0  0  0  0  0  0  0  0  0
    8.6310   -0.9696   -7.0830 C   0  0  0  0  0  0  0  0  0  0  0  0
    8.1433   -0.5483   -4.6782 C   0  0  0  0  0  0  0  0  0  0  0  0
    4.9705   -3.9298   -6.8117 N   0  0  0  0  0  0  0  0  0  0  0  0
    3.7031   -4.1530   -6.2947 C   0  0  0  0  0  0  0  0  0  0  0  0
    2.7870   -3.9938   -7.1186 O   0  0  0  0  0  0  0  0  0  0  0  0
    3.3075   -4.7759   -4.8950 C   0  0  2  0  0  0  0  0  0  0  0  0
    1.8243   -5.0078   -4.4164 C   0  0  0  0  0  0  0  0  0  0  0  0
    1.6896   -5.2611   -2.8765 C   0  0  0  0  0  0  0  0  0  0  0  0
    1.1228   -6.1666   -5.1419 C   0  0  0  0  0  0  0  0  0  0  0  0
    4.0256   -4.0911   -3.8881 N   0  0  0  0  0  0  0  0  0  0  0  0
    3.6946   -2.6893   -3.6223 C   0  0  0  0  0  0  0  0  0  0  0  0
    5.2565   -4.6095   -3.6174 C   0  0  0  0  0  0  0  0  0  0  0  0
    6.1677   -3.7974   -3.5593 O   0  0  0  0  0  0  0  0  0  0  0  0
    7.1683   -3.2595   -0.0875 H   0  0  0  0  0  0  0  0  0  0  0  0
    6.5205   -2.8314   -1.6547 H   0  0  0  0  0  0  0  0  0  0  0  0
    8.2574   -2.8684   -1.4146 H   0  0  0  0  0  0  0  0  0  0  0  0
    8.0985   -5.3019   -0.7808 H   0  0  0  0  0  0  0  0  0  0  0  0
    8.0144   -4.9692   -2.4706 H   0  0  0  0  0  0  0  0  0  0  0  0
    6.5116   -6.7273   -1.1201 H   0  0  0  0  0  0  0  0  0  0  0  0
    4.7046   -4.2624   -0.9926 H   0  0  0  0  0  0  0  0  0  0  0  0
    5.5784   -4.9786    0.3639 H   0  0  0  0  0  0  0  0  0  0  0  0
    4.2825   -5.8829   -0.4261 H   0  0  0  0  0  0  0  0  0  0  0  0
    4.3345   -6.2257   -2.6197 H   0  0  0  0  0  0  0  0  0  0  0  0
    3.9966   -7.4768   -4.1426 H   0  0  0  0  0  0  0  0  0  0  0  0
    5.5217  -11.1854   -5.5871 H   0  0  0  0  0  0  0  0  0  0  0  0
    7.0141  -11.4114   -7.0952 H   0  0  0  0  0  0  0  0  0  0  0  0
    7.4079   -9.7402   -6.7969 H   0  0  0  0  0  0  0  0  0  0  0  0
    6.6678  -10.6713   -9.2532 H   0  0  0  0  0  0  0  0  0  0  0  0
    6.2548   -9.0292   -8.7628 H   0  0  0  0  0  0  0  0  0  0  0  0
    4.4487  -11.2244   -9.2192 H   0  0  0  0  0  0  0  0  0  0  0  0
    4.0304   -9.5623   -8.7902 H   0  0  0  0  0  0  0  0  0  0  0  0
    3.0745  -13.8447   -6.1437 H   0  0  0  0  0  0  0  0  0  0  0  0
    6.0565  -13.2709   -6.3840 H   0  0  0  0  0  0  0  0  0  0  0  0
    5.3642  -14.6155   -5.4435 H   0  0  0  0  0  0  0  0  0  0  0  0
    5.9300  -15.2186   -7.4965 H   0  0  0  0  0  0  0  0  0  0  0  0
    1.6926  -13.2621   -4.5199 H   0  0  0  0  0  0  0  0  0  0  0  0
    1.8185  -11.5435   -4.8986 H   0  0  0  0  0  0  0  0  0  0  0  0
    2.1130  -12.1208   -3.2338 H   0  0  0  0  0  0  0  0  0  0  0  0
    3.7467  -11.3775   -2.1836 H   0  0  0  0  0  0  0  0  0  0  0  0
    3.8680   -9.2146   -2.3168 H   0  0  0  0  0  0  0  0  0  0  0  0
    2.6455   -8.7053   -4.3364 H   0  0  0  0  0  0  0  0  0  0  0  0
    3.2286  -10.0878   -5.1717 H   0  0  0  0  0  0  0  0  0  0  0  0
    3.6571   -7.1717   -6.1521 H   0  0  0  0  0  0  0  0  0  0  0  0
    4.3470   -8.4239   -6.9989 H   0  0  0  0  0  0  0  0  0  0  0  0
    5.9311   -6.1780   -5.8296 H   0  0  0  0  0  0  0  0  0  0  0  0
    6.7069   -7.6487   -6.4772 H   0  0  0  0  0  0  0  0  0  0  0  0
    7.3806   -6.6556   -3.5625 H   0  0  0  0  0  0  0  0  0  0  0  0
    7.9239   -8.0440   -4.3417 H   0  0  0  0  0  0  0  0  0  0  0  0
    5.7856   -8.1294   -1.8061 H   0  0  0  0  0  0  0  0  0  0  0  0
    6.9106   -9.3295   -2.2181 H   0  0  0  0  0  0  0  0  0  0  0  0
    5.3259  -11.7641   -0.8274 H   0  0  0  0  0  0  0  0  0  0  0  0
    7.7770  -11.4342   -3.7793 H   0  0  0  0  0  0  0  0  0  0  0  0
    9.4331  -13.0884   -1.8340 H   0  0  0  0  0  0  0  0  0  0  0  0
   10.1005  -12.4051   -4.7388 H   0  0  0  0  0  0  0  0  0  0  0  0
   10.9165  -13.6230   -3.7568 H   0  0  0  0  0  0  0  0  0  0  0  0
   11.0395  -11.9316   -3.2999 H   0  0  0  0  0  0  0  0  0  0  0  0
    8.0048  -13.8827   -4.4186 H   0  0  0  0  0  0  0  0  0  0  0  0
    7.4494  -14.2723   -2.7701 H   0  0  0  0  0  0  0  0  0  0  0  0
    8.9546  -14.9450   -3.3830 H   0  0  0  0  0  0  0  0  0  0  0  0
    9.3472  -11.1481   -0.5548 H   0  0  0  0  0  0  0  0  0  0  0  0
    8.9447   -9.4223   -0.5968 H   0  0  0  0  0  0  0  0  0  0  0  0
   10.5865  -10.0738   -1.0276 H   0  0  0  0  0  0  0  0  0  0  0  0
    9.3012   -7.3105   -3.1726 H   0  0  0  0  0  0  0  0  0  0  0  0
   10.4879   -8.1374   -1.2215 H   0  0  0  0  0  0  0  0  0  0  0  0
   13.1193   -7.9026   -2.7148 H   0  0  0  0  0  0  0  0  0  0  0  0
   12.2669   -9.4547   -2.6243 H   0  0  0  0  0  0  0  0  0  0  0  0
   12.7852   -8.6585   -1.1469 H   0  0  0  0  0  0  0  0  0  0  0  0
   10.2976   -5.7270   -1.7130 H   0  0  0  0  0  0  0  0  0  0  0  0
   11.9825   -5.7641   -2.2370 H   0  0  0  0  0  0  0  0  0  0  0  0
   10.9171   -6.6631    0.5149 H   0  0  0  0  0  0  0  0  0  0  0  0
   11.7542   -5.1443    0.1827 H   0  0  0  0  0  0  0  0  0  0  0  0
   12.6223   -6.6787    0.0439 H   0  0  0  0  0  0  0  0  0  0  0  0
    8.5893   -6.9486   -5.7748 H   0  0  0  0  0  0  0  0  0  0  0  0
    8.3356   -8.0987   -9.4009 H   0  0  0  0  0  0  0  0  0  0  0  0
    8.5707   -6.3526   -9.3242 H   0  0  0  0  0  0  0  0  0  0  0  0
    7.4036   -7.1381   -8.2790 H   0  0  0  0  0  0  0  0  0  0  0  0
   10.8443   -8.2344   -9.1395 H   0  0  0  0  0  0  0  0  0  0  0  0
   11.6647   -7.6959   -7.6907 H   0  0  0  0  0  0  0  0  0  0  0  0
   11.0507   -6.5122   -8.8702 H   0  0  0  0  0  0  0  0  0  0  0  0
    9.7167   -9.0201   -6.3565 H   0  0  0  0  0  0  0  0  0  0  0  0
   10.0606   -4.8363   -8.3759 H   0  0  0  0  0  0  0  0  0  0  0  0
    9.8747   -3.5300   -7.2025 H   0  0  0  0  0  0  0  0  0  0  0  0
    8.6353   -3.8198   -8.4572 H   0  0  0  0  0  0  0  0  0  0  0  0
    6.8002   -3.4770   -7.5952 H   0  0  0  0  0  0  0  0  0  0  0  0
    6.0971   -1.4513   -6.6705 H   0  0  0  0  0  0  0  0  0  0  0  0
    6.0935   -2.0454   -5.0494 H   0  0  0  0  0  0  0  0  0  0  0  0
    8.7410   -2.4036   -5.4894 H   0  0  0  0  0  0  0  0  0  0  0  0
    8.1563   -0.0065   -7.2985 H   0  0  0  0  0  0  0  0  0  0  0  0
    8.4753   -1.6141   -7.9503 H   0  0  0  0  0  0  0  0  0  0  0  0
    9.7088   -0.7935   -6.9857 H   0  0  0  0  0  0  0  0  0  0  0  0
    7.5117    0.3185   -4.8965 H   0  0  0  0  0  0  0  0  0  0  0  0
    9.1722   -0.1922   -4.5464 H   0  0  0  0  0  0  0  0  0  0  0  0
    7.8212   -0.9792   -3.7246 H   0  0  0  0  0  0  0  0  0  0  0  0
    4.7617   -3.5944   -7.7474 H   0  0  0  0  0  0  0  0  0  0  0  0
    3.7355   -5.7560   -4.9615 H   0  0  0  0  0  0  0  0  0  0  0  0
    1.2485   -4.0983   -4.6221 H   0  0  0  0  0  0  0  0  0  0  0  0
    2.6311   -5.4298   -2.3629 H   0  0  0  0  0  0  0  0  0  0  0  0
    1.0664   -6.1242   -2.6188 H   0  0  0  0  0  0  0  0  0  0  0  0
    1.2428   -4.3898   -2.3862 H   0  0  0  0  0  0  0  0  0  0  0  0
    1.8162   -6.8521   -5.6178 H   0  0  0  0  0  0  0  0  0  0  0  0
    0.4569   -5.7831   -5.9170 H   0  0  0  0  0  0  0  0  0  0  0  0
    0.5091   -6.7816   -4.4721 H   0  0  0  0  0  0  0  0  0  0  0  0
    3.1243   -2.2561   -4.4478 H   0  0  0  0  0  0  0  0  0  0  0  0
    4.5783   -2.0797   -3.4252 H   0  0  0  0  0  0  0  0  0  0  0  0
    3.0753   -2.6672   -2.7197 H   0  0  0  0  0  0  0  0  0  0  0  0
  1  2  1  0  0  0  0
  1 74  1  0  0  0  0
  1 75  1  0  0  0  0
  1 76  1  0  0  0  0
  2 77  1  0  0  0  0
  2 78  1  0  0  0  0
  3  4  1  0  0  0  0
  3  2  1  0  0  0  0
  3 79  1  6  0  0  0
  4 80  1  0  0  0  0
  4 81  1  0  0  0  0
  4 82  1  0  0  0  0
  5  6  1  0  0  0  0
  5 72  1  0  0  0  0
  5  3  1  0  0  0  0
  5 83  1  1  0  0  0
  6  7  1  0  0  0  0
  6 84  1  0  0  0  0
  7  8  2  0  0  0  0
  7  9  1  0  0  0  0
  9 10  1  0  0  0  0
  9 13  1  0  0  0  0
  9 85  1  1  0  0  0
 10 11  1  0  0  0  0
 10 86  1  0  0  0  0
 10 87  1  0  0  0  0
 11 12  1  0  0  0  0
 11 88  1  0  0  0  0
 11 89  1  0  0  0  0
 12 13  1  0  0  0  0
 12 90  1  0  0  0  0
 12 91  1  0  0  0  0
 13 14  1  0  0  0  0
 14 15  2  0  0  0  0
 14 16  1  0  0  0  0
 16 17  1  0  0  0  0
 16 19  1  0  0  0  0
 16 92  1  6  0  0  0
 17 18  1  0  0  0  0
 17 93  1  0  0  0  0
 17 94  1  0  0  0  0
 18 95  1  0  0  0  0
 19 20  1  0  0  0  0
 19 21  1  0  0  0  0
 20 96  1  0  0  0  0
 20 97  1  0  0  0  0
 20 98  1  0  0  0  0
 21 22  2  0  0  0  0
 21 23  1  0  0  0  0
 23 30  1  0  0  0  0
 23 24  1  0  0  0  0
 23 99  1  1  0  0  0
 24 25  1  0  0  0  0
 24 29  1  0  0  0  0
 24100  1  0  0  0  0
 25 26  1  0  0  0  0
 25101  1  0  0  0  0
 25102  1  0  0  0  0
 26 27  1  0  0  0  0
 26103  1  0  0  0  0
 26104  1  0  0  0  0
 27 28  1  0  0  0  0
 27105  1  0  0  0  0
 27106  1  0  0  0  0
 28 29  1  0  0  0  0
 28107  1  0  0  0  0
 28108  1  0  0  0  0
 29109  1  0  0  0  0
 29110  1  0  0  0  0
 30 31  1  0  0  0  0
 30111  1  0  0  0  0
 31 32  2  0  0  0  0
 31 33  1  0  0  0  0
 33 37  1  0  0  0  0
 33 34  1  0  0  0  0
 33112  1  6  0  0  0
 34 35  1  0  0  0  0
 34 36  1  0  0  0  0
 34113  1  0  0  0  0
 35114  1  0  0  0  0
 35115  1  0  0  0  0
 35116  1  0  0  0  0
 36117  1  0  0  0  0
 36118  1  0  0  0  0
 36119  1  0  0  0  0
 37 38  1  0  0  0  0
 37 39  1  0  0  0  0
 38120  1  0  0  0  0
 38121  1  0  0  0  0
 38122  1  0  0  0  0
 39 40  2  0  0  0  0
 39 41  1  0  0  0  0
 41 42  1  0  0  0  0
 41 46  1  0  0  0  0
 41123  1  1  0  0  0
 42 43  1  0  0  0  0
 42 44  1  0  0  0  0
 42124  1  1  0  0  0
 43125  1  0  0  0  0
 43126  1  0  0  0  0
 43127  1  0  0  0  0
 44 45  1  0  0  0  0
 44128  1  0  0  0  0
 44129  1  0  0  0  0
 45130  1  0  0  0  0
 45131  1  0  0  0  0
 45132  1  0  0  0  0
 46 47  1  0  0  0  0
 47 48  2  0  0  0  0
 47 49  1  0  0  0  0
 49 54  1  0  0  0  0
 49 50  1  0  0  0  0
 49133  1  1  0  0  0
 50 51  1  0  0  0  0
 50 52  1  0  0  0  0
 50 53  1  0  0  0  0
 51134  1  0  0  0  0
 51135  1  0  0  0  0
 51136  1  0  0  0  0
 52137  1  0  0  0  0
 52138  1  0  0  0  0
 52139  1  0  0  0  0
 53140  1  0  0  0  0
 54 55  1  0  0  0  0
 54 56  1  0  0  0  0
 55141  1  0  0  0  0
 55142  1  0  0  0  0
 55143  1  0  0  0  0
 56 57  2  0  0  0  0
 56 58  1  0  0  0  0
 58 63  1  0  0  0  0
 58 59  1  0  0  0  0
 58144  1  6  0  0  0
 59 60  1  0  0  0  0
 59145  1  0  0  0  0
 59146  1  0  0  0  0
 60 61  1  0  0  0  0
 60 62  1  0  0  0  0
 60147  1  0  0  0  0
 61148  1  0  0  0  0
 61149  1  0  0  0  0
 61150  1  0  0  0  0
 62151  1  0  0  0  0
 62152  1  0  0  0  0
 62153  1  0  0  0  0
 63 64  1  0  0  0  0
 63154  1  0  0  0  0
 64 65  2  0  0  0  0
 64 66  1  0  0  0  0
 66 70  1  0  0  0  0
 66 67  1  0  0  0  0
 66155  1  6  0  0  0
 67 68  1  0  0  0  0
 67 69  1  0  0  0  0
 67156  1  0  0  0  0
 68157  1  0  0  0  0
 68158  1  0  0  0  0
 68159  1  0  0  0  0
 69160  1  0  0  0  0
 69161  1  0  0  0  0
 69162  1  0  0  0  0
 70 71  1  0  0  0  0
 70 72  1  0  0  0  0
 71163  1  0  0  0  0
 71164  1  0  0  0  0
 71165  1  0  0  0  0
 72 73  2  0  0  0  0
M  END
>  <Energy>
1343.65

$$$$