92
 OpenBabel03292021543D

 84 85  0  0  1  0  0  0  0  0999 V2000
   -0.3145   -3.0109   -3.8318 C   0  0  0  0  0  0  0  0  0  0  0  0
    0.2609   -1.6060   -3.5887 C   0  0  0  0  0  0  0  0  0  0  0  0
    1.0635   -1.0989   -4.7975 C   0  0  0  0  0  0  0  0  0  0  0  0
   -0.9557   -0.6512   -3.4644 C   0  0  0  0  0  0  0  0  0  0  0  0
    1.0447   -1.5875   -2.3348 O   0  0  0  0  0  0  0  0  0  0  0  0
    2.2416   -2.2604   -2.2327 C   0  0  0  0  0  0  0  0  0  0  0  0
    2.7853   -2.8696   -3.1459 O   0  0  0  0  0  0  0  0  0  0  0  0
    2.7898   -2.3257   -0.8081 C   0  0  0  0  0  0  0  0  0  0  0  0
    4.3511   -2.4489   -0.7010 C   0  0  3  0  0  0  0  0  0  0  0  0
    5.0337   -1.1024   -0.9694 C   0  0  0  0  0  0  0  0  0  0  0  0
    4.3339   -0.0858   -1.0792 O   0  0  0  0  0  0  0  0  0  0  0  0
    6.5936   -0.9822   -1.1588 C   0  0  2  0  0  0  0  0  0  0  0  0
    6.9060   -0.1268   -2.4132 C   0  0  0  0  0  0  0  0  0  0  0  0
    6.7622   -0.7790   -3.7706 C   0  0  0  0  0  0  0  0  0  0  0  0
    5.8709   -1.8166   -4.0355 C   0  0  0  0  0  0  0  0  0  0  0  0
    5.8312   -2.4351   -5.2853 C   0  0  0  0  0  0  0  0  0  0  0  0
    6.6541   -1.9993   -6.3152 C   0  0  0  0  0  0  0  0  0  0  0  0
    6.5739   -2.7341   -7.4593 O   0  0  0  0  0  0  0  0  0  0  0  0
    6.5725   -2.1063   -8.7523 C   0  0  0  0  0  0  0  0  0  0  0  0
    7.9967   -1.8069   -9.2334 C   0  0  0  0  0  0  0  0  0  0  0  0
    5.9953   -3.1850   -9.6912 C   0  0  0  0  0  0  0  0  0  0  0  0
    5.6479   -0.8831   -8.8306 C   0  0  0  0  0  0  0  0  0  0  0  0
    7.5251   -0.9428   -6.0770 C   0  0  0  0  0  0  0  0  0  0  0  0
    7.5712   -0.3286   -4.8206 C   0  0  0  0  0  0  0  0  0  0  0  0
    7.3708   -2.2239   -1.0048 N   0  0  0  0  0  0  0  0  0  0  0  0
    8.5718   -2.5568   -1.5625 C   0  0  0  0  0  0  0  0  0  0  0  0
    9.1779   -1.9274   -2.4096 O   0  0  0  0  0  0  0  0  0  0  0  0
    9.0035   -3.7134   -0.9920 O   0  0  0  0  0  0  0  0  0  0  0  0
   10.2927   -4.3001   -1.3401 C   0  0  0  0  0  0  0  0  0  0  0  0
   11.4401   -3.4222   -0.8283 C   0  0  0  0  0  0  0  0  0  0  0  0
   10.3394   -5.6529   -0.6055 C   0  0  0  0  0  0  0  0  0  0  0  0
   10.4386   -4.5880   -2.8404 C   0  0  0  0  0  0  0  0  0  0  0  0
    4.8216   -2.9381    0.9778 S   0  0  0  0  0  0  0  0  0  0  0  0
    6.2378   -2.8139    1.1717 O   0  0  0  0  0  0  0  0  0  0  0  0
    3.9216   -2.3097    1.9000 O   0  0  0  0  0  0  0  0  0  0  0  0
    4.5091   -4.7034    1.0617 C   0  0  0  0  0  0  0  0  0  0  0  0
    5.4359   -5.6157    0.5512 C   0  0  0  0  0  0  0  0  0  0  0  0
    5.1962   -6.9870    0.6836 C   0  0  0  0  0  0  0  0  0  0  0  0
    4.0481   -7.4373    1.3375 C   0  0  0  0  0  0  0  0  0  0  0  0
    3.1501   -6.5225    1.8869 C   0  0  0  0  0  0  0  0  0  0  0  0
    3.3822   -5.1528    1.7585 C   0  0  0  0  0  0  0  0  0  0  0  0
   -0.7195   -3.1075   -4.8465 H   0  0  0  0  0  0  0  0  0  0  0  0
   -1.1374   -3.2184   -3.1355 H   0  0  0  0  0  0  0  0  0  0  0  0
    0.4267   -3.7976   -3.6789 H   0  0  0  0  0  0  0  0  0  0  0  0
    0.4688   -1.1621   -5.7178 H   0  0  0  0  0  0  0  0  0  0  0  0
    1.9841   -1.6567   -4.9687 H   0  0  0  0  0  0  0  0  0  0  0  0
    1.3476   -0.0495   -4.6580 H   0  0  0  0  0  0  0  0  0  0  0  0
   -1.5937   -0.7175   -4.3591 H   0  0  0  0  0  0  0  0  0  0  0  0
   -0.6452    0.3948   -3.3670 H   0  0  0  0  0  0  0  0  0  0  0  0
   -1.5799   -0.8838   -2.5957 H   0  0  0  0  0  0  0  0  0  0  0  0
    2.3320   -3.2205   -0.3697 H   0  0  0  0  0  0  0  0  0  0  0  0
    2.4247   -1.4651   -0.2375 H   0  0  0  0  0  0  0  0  0  0  0  0
    4.7457   -3.1958   -1.3943 H   0  0  0  0  0  0  0  0  0  0  0  0
    6.9025   -0.3714   -0.2963 H   0  0  0  0  0  0  0  0  0  0  0  0
    6.2815    0.7762   -2.4181 H   0  0  0  0  0  0  0  0  0  0  0  0
    7.9379    0.2387   -2.3105 H   0  0  0  0  0  0  0  0  0  0  0  0
    5.1968   -2.1980   -3.2891 H   0  0  0  0  0  0  0  0  0  0  0  0
    5.1496   -3.2667   -5.4437 H   0  0  0  0  0  0  0  0  0  0  0  0
    8.6619   -2.6522   -9.0230 H   0  0  0  0  0  0  0  0  0  0  0  0
    8.4307   -0.9317   -8.7493 H   0  0  0  0  0  0  0  0  0  0  0  0
    8.0204   -1.6001  -10.3080 H   0  0  0  0  0  0  0  0  0  0  0  0
    6.5641   -4.1190   -9.6107 H   0  0  0  0  0  0  0  0  0  0  0  0
    6.0088   -2.8595  -10.7366 H   0  0  0  0  0  0  0  0  0  0  0  0
    4.9611   -3.4284   -9.4212 H   0  0  0  0  0  0  0  0  0  0  0  0
    5.9713   -0.0721   -8.1722 H   0  0  0  0  0  0  0  0  0  0  0  0
    4.6292   -1.1482   -8.5215 H   0  0  0  0  0  0  0  0  0  0  0  0
    5.6047   -0.4837   -9.8489 H   0  0  0  0  0  0  0  0  0  0  0  0
    8.2171   -0.5845   -6.8225 H   0  0  0  0  0  0  0  0  0  0  0  0
    8.2854    0.4766   -4.6566 H   0  0  0  0  0  0  0  0  0  0  0  0
    7.3224   -2.6334   -0.0675 H   0  0  0  0  0  0  0  0  0  0  0  0
   11.3818   -3.2972    0.2588 H   0  0  0  0  0  0  0  0  0  0  0  0
   11.4066   -2.4184   -1.2617 H   0  0  0  0  0  0  0  0  0  0  0  0
   12.4156   -3.8596   -1.0704 H   0  0  0  0  0  0  0  0  0  0  0  0
   10.1359   -5.5331    0.4644 H   0  0  0  0  0  0  0  0  0  0  0  0
   11.3126   -6.1437   -0.7212 H   0  0  0  0  0  0  0  0  0  0  0  0
    9.5703   -6.3320   -0.9930 H   0  0  0  0  0  0  0  0  0  0  0  0
   10.4588   -3.6759   -3.4418 H   0  0  0  0  0  0  0  0  0  0  0  0
    9.6036   -5.1955   -3.2056 H   0  0  0  0  0  0  0  0  0  0  0  0
   11.3711   -5.1281   -3.0451 H   0  0  0  0  0  0  0  0  0  0  0  0
    6.3586   -5.2856    0.0765 H   0  0  0  0  0  0  0  0  0  0  0  0
    5.9085   -7.7107    0.2916 H   0  0  0  0  0  0  0  0  0  0  0  0
    3.8612   -8.5047    1.4396 H   0  0  0  0  0  0  0  0  0  0  0  0
    2.2766   -6.8752    2.4293 H   0  0  0  0  0  0  0  0  0  0  0  0
    2.6933   -4.4512    2.2258 H   0  0  0  0  0  0  0  0  0  0  0  0
  1  2  1  0  0  0  0
  1 42  1  0  0  0  0
  1 43  1  0  0  0  0
  1 44  1  0  0  0  0
  2  3  1  0  0  0  0
  2  4  1  0  0  0  0
  2  5  1  0  0  0  0
  3 45  1  0  0  0  0
  3 46  1  0  0  0  0
  3 47  1  0  0  0  0
  4 48  1  0  0  0  0
  4 49  1  0  0  0  0
  4 50  1  0  0  0  0
  5  6  1  0  0  0  0
  6  7  2  0  0  0  0
  6  8  1  0  0  0  0
  8  9  1  0  0  0  0
  8 51  1  0  0  0  0
  8 52  1  0  0  0  0
  9 10  1  0  0  0  0
  9 33  1  0  0  0  0
  9 53  1  0  0  0  0
 10 11  2  0  0  0  0
 12 25  1  0  0  0  0
 12 13  1  0  0  0  0
 12 10  1  0  0  0  0
 12 54  1  1  0  0  0
 13 14  1  0  0  0  0
 13 55  1  0  0  0  0
 13 56  1  0  0  0  0
 14 15  1  0  0  0  0
 14 24  2  0  0  0  0
 15 16  2  0  0  0  0
 15 57  1  0  0  0  0
 16 17  1  0  0  0  0
 16 58  1  0  0  0  0
 17 18  1  0  0  0  0
 17 23  2  0  0  0  0
 18 19  1  0  0  0  0
 19 20  1  0  0  0  0
 19 21  1  0  0  0  0
 19 22  1  0  0  0  0
 20 59  1  0  0  0  0
 20 60  1  0  0  0  0
 20 61  1  0  0  0  0
 21 62  1  0  0  0  0
 21 63  1  0  0  0  0
 21 64  1  0  0  0  0
 22 65  1  0  0  0  0
 22 66  1  0  0  0  0
 22 67  1  0  0  0  0
 23 24  1  0  0  0  0
 23 68  1  0  0  0  0
 24 69  1  0  0  0  0
 25 26  1  0  0  0  0
 25 70  1  0  0  0  0
 26 27  2  0  0  0  0
 26 28  1  0  0  0  0
 28 29  1  0  0  0  0
 29 30  1  0  0  0  0
 29 31  1  0  0  0  0
 29 32  1  0  0  0  0
 30 71  1  0  0  0  0
 30 72  1  0  0  0  0
 30 73  1  0  0  0  0
 31 74  1  0  0  0  0
 31 75  1  0  0  0  0
 31 76  1  0  0  0  0
 32 77  1  0  0  0  0
 32 78  1  0  0  0  0
 32 79  1  0  0  0  0
 33 34  2  0  0  0  0
 33 35  2  0  0  0  0
 33 36  1  0  0  0  0
 36 37  1  0  0  0  0
 36 41  2  0  0  0  0
 37 38  2  0  0  0  0
 37 80  1  0  0  0  0
 38 39  1  0  0  0  0
 38 81  1  0  0  0  0
 39 40  2  0  0  0  0
 39 82  1  0  0  0  0
 40 41  1  0  0  0  0
 40 83  1  0  0  0  0
 41 84  1  0  0  0  0
M  END
>  <Energy>
-0.889522

$$$$