11666668
  -OEChem-03242010103D

 41 43  0     0  0  0  0  0  0999 V2000
    4.9146   -2.3255    0.1330 O   0  0  0  0  0  0  0  0  0  0  0  0
    4.9135    2.4396   -0.1395 O   0  0  0  0  0  0  0  0  0  0  0  0
   -7.6929    0.0508   -0.0024 O   0  0  0  0  0  0  0  0  0  0  0  0
    0.6940    0.0565   -0.0041 C   0  0  0  0  0  0  0  0  0  0  0  0
    2.1408    0.0565   -0.0035 C   0  0  0  0  0  0  0  0  0  0  0  0
   -2.0958    0.0547   -0.0034 C   0  0  0  0  0  0  0  0  0  0  0  0
   -0.0039    1.1352    0.5389 C   0  0  0  0  0  0  0  0  0  0  0  0
   -0.0030   -1.0232   -0.5466 C   0  0  0  0  0  0  0  0  0  0  0  0
   -3.5426    0.0536   -0.0031 C   0  0  0  0  0  0  0  0  0  0  0  0
   -1.3987    1.1343    0.5394 C   0  0  0  0  0  0  0  0  0  0  0  0
   -1.3978   -1.0240   -0.5463 C   0  0  0  0  0  0  0  0  0  0  0  0
    2.8382    1.2627   -0.0721 C   0  0  0  0  0  0  0  0  0  0  0  0
    2.8385   -1.1494    0.0659 C   0  0  0  0  0  0  0  0  0  0  0  0
    4.2334   -1.1492    0.0665 C   0  0  0  0  0  0  0  0  0  0  0  0
    4.2331    1.2628   -0.0716 C   0  0  0  0  0  0  0  0  0  0  0  0
    4.9306    0.0569   -0.0024 C   0  0  0  0  0  0  0  0  0  0  0  0
   -4.2405    1.2590   -0.0723 C   0  0  0  0  0  0  0  0  0  0  0  0
   -4.2388   -1.1529    0.0662 C   0  0  0  0  0  0  0  0  0  0  0  0
   -5.6355    1.2583   -0.0719 C   0  0  0  0  0  0  0  0  0  0  0  0
   -5.6337   -1.1538    0.0663 C   0  0  0  0  0  0  0  0  0  0  0  0
   -6.3320    0.0518   -0.0025 C   0  0  0  0  0  0  0  0  0  0  0  0
    4.1400   -3.5218    0.2001 C   0  0  0  0  0  0  0  0  0  0  0  0
    6.3384    2.3670   -0.1348 C   0  0  0  0  0  0  0  0  0  0  0  0
    0.4958    1.9795    1.0060 H   0  0  0  0  0  0  0  0  0  0  0  0
    0.4953   -1.8660   -1.0179 H   0  0  0  0  0  0  0  0  0  0  0  0
   -1.8994    1.9781    1.0064 H   0  0  0  0  0  0  0  0  0  0  0  0
   -1.8976   -1.8681   -1.0138 H   0  0  0  0  0  0  0  0  0  0  0  0
    2.3325    2.2211   -0.1576 H   0  0  0  0  0  0  0  0  0  0  0  0
    2.2769   -2.0710    0.1605 H   0  0  0  0  0  0  0  0  0  0  0  0
    6.0137   -0.0088    0.0014 H   0  0  0  0  0  0  0  0  0  0  0  0
   -3.7416    2.2204   -0.1585 H   0  0  0  0  0  0  0  0  0  0  0  0
   -3.7387   -2.1136    0.1522 H   0  0  0  0  0  0  0  0  0  0  0  0
   -6.1682    2.2036   -0.1328 H   0  0  0  0  0  0  0  0  0  0  0  0
   -6.1714   -2.0961    0.1271 H   0  0  0  0  0  0  0  0  0  0  0  0
    4.8443   -4.3596    0.2361 H   0  0  0  0  0  0  0  0  0  0  0  0
    3.5294   -3.6592   -0.6989 H   0  0  0  0  0  0  0  0  0  0  0  0
    3.5465   -3.5665    1.1196 H   0  0  0  0  0  0  0  0  0  0  0  0
    6.7175    1.8373   -1.0153 H   0  0  0  0  0  0  0  0  0  0  0  0
    6.7168    1.9416    0.8010 H   0  0  0  0  0  0  0  0  0  0  0  0
    6.7144    3.3937   -0.1937 H   0  0  0  0  0  0  0  0  0  0  0  0
   -8.0087    0.9693   -0.0546 H   0  0  0  0  0  0  0  0  0  0  0  0
  1 14  1  0  0  0  0
  1 22  1  0  0  0  0
  2 15  1  0  0  0  0
  2 23  1  0  0  0  0
  3 21  1  0  0  0  0
  3 41  1  0  0  0  0
  4  5  1  0  0  0  0
  4  7  2  0  0  0  0
  4  8  1  0  0  0  0
  5 12  2  0  0  0  0
  5 13  1  0  0  0  0
  6  9  1  0  0  0  0
  6 10  2  0  0  0  0
  6 11  1  0  0  0  0
  7 10  1  0  0  0  0
  7 24  1  0  0  0  0
  8 11  2  0  0  0  0
  8 25  1  0  0  0  0
  9 17  2  0  0  0  0
  9 18  1  0  0  0  0
 10 26  1  0  0  0  0
 11 27  1  0  0  0  0
 12 15  1  0  0  0  0
 12 28  1  0  0  0  0
 13 14  2  0  0  0  0
 13 29  1  0  0  0  0
 14 16  1  0  0  0  0
 15 16  2  0  0  0  0
 16 30  1  0  0  0  0
 17 19  1  0  0  0  0
 17 31  1  0  0  0  0
 18 20  2  0  0  0  0
 18 32  1  0  0  0  0
 19 21  2  0  0  0  0
 19 33  1  0  0  0  0
 20 21  1  0  0  0  0
 20 34  1  0  0  0  0
 22 35  1  0  0  0  0
 22 36  1  0  0  0  0
 22 37  1  0  0  0  0
 23 38  1  0  0  0  0
 23 39  1  0  0  0  0
 23 40  1  0  0  0  0
M  END
> <PUBCHEM_COMPOUND_CID>
11666668

> <PUBCHEM_CONFORMER_RMSD>
0.6

> <PUBCHEM_CONFORMER_DIVERSEORDER>
4
3
6
1
2
5

> <PUBCHEM_MMFF94_PARTIAL_CHARGES>
31
1 -0.36
10 -0.15
11 -0.15
12 -0.15
13 -0.15
14 0.08
15 0.08
16 -0.15
17 -0.15
18 -0.15
19 -0.15
2 -0.36
20 -0.15
21 0.08
22 0.28
23 0.28
24 0.15
25 0.15
26 0.15
27 0.15
28 0.15
29 0.15
3 -0.53
30 0.15
31 0.15
32 0.15
33 0.15
34 0.15
41 0.45
7 -0.15
8 -0.15

> <PUBCHEM_EFFECTIVE_ROTOR_COUNT>
4

> <PUBCHEM_PHARMACOPHORE_FEATURES>
6
1 1 acceptor
1 2 acceptor
1 3 donor
6 4 6 7 8 10 11 rings
6 5 12 13 14 15 16 rings
6 9 17 18 19 20 21 rings

> <PUBCHEM_HEAVY_ATOM_COUNT>
23

> <PUBCHEM_ATOM_DEF_STEREO_COUNT>
0

> <PUBCHEM_ATOM_UDEF_STEREO_COUNT>
0

> <PUBCHEM_BOND_DEF_STEREO_COUNT>
0

> <PUBCHEM_BOND_UDEF_STEREO_COUNT>
0

> <PUBCHEM_ISOTOPIC_ATOM_COUNT>
0

> <PUBCHEM_COMPONENT_COUNT>
1

> <PUBCHEM_CACTVS_TAUTO_COUNT>
2

> <PUBCHEM_CONFORMER_ID>
00B204EC00000004

> <PUBCHEM_MMFF94_ENERGY>
98.1936

> <PUBCHEM_FEATURE_SELFOVERLAP>
30.446

> <PUBCHEM_SHAPE_FINGERPRINT>
10411042 1 18049722915882877938
10554248 39 18270954636214202933
10595046 47 18412825798235244625
10835480 77 18335977614955915693
10906281 52 17916886667927633433
11719270 70 17917707960053795919
12107183 9 17836370341251964401
12166972 35 18408326570890389013
12236239 1 18413671305570903761
12516196 113 18060698399115528833
12616971 3 17917137334613521271
12730499 353 18336835277249125250
12788726 201 17418103100132131128
13073987 5 18411984650433952353
13167372 99 18271248210071880081
13167823 11 18410290289893335579
13533116 47 18342174449499261538
13785724 45 17766848225824672294
14251764 18 18130791179397403953
14341114 176 18334862714602222985
14461889 52 18261392320831235578
14933364 13 18409451396981177757
15183329 4 18412266112467517929
15196674 1 18411982451220461185
15250474 111 18200578298097347431
16993427 108 17171783767492949490
17492 89 18197216954112948246
17844677 252 18337678516145966557
1813 80 16732984214946278630
18335252 98 18335144245366211459
19427546 62 18262521532706235426
20157964 124 18409449193752450240
20281389 69 18333449820786317525
20645477 70 18408603626540638450
21065198 48 18271531913809413888
21130935 74 18412267229618464259
21267235 1 18342461388043845574
21279426 13 18265049142023318053
21344244 78 18199733779547424872
21792934 111 18200300048587685409
220451 1 18060420244174690671
23081809 10 17989202638566040437
23522609 53 17987822777275440137
23536379 177 18409167693164178529
23559900 14 18408321094537476786
23569914 2 17541042824024584453
239999 70 18342742884527255798
255183 451 18128263286133160350
29717793 49 17846504708009161724
3004659 81 18408605829811271626
3014965 18 18337386046237659535
34797466 226 17918002697314412540
3545911 37 18409730698925976228
397830 11 16951987243576068473
4073 2 18114467863113601307
4214541 1 18410292472179664649
4325135 7 18411138069018852636
4340502 62 17603583049605911354
4463277 17 18412826906458243201
465052 167 18342740667828252382
5104073 3 18412266112224743595
6025842 7 18410857664311710478
8272917 22 18410856564800115278
9971528 1 17894353271694994572

> <PUBCHEM_SHAPE_MULTIPOLES>
455.72
17.58
2.52
0.66
13.34
1.18
0
-2.38
-0.14
-5.25
0.09
0.02
0
-0.4

> <PUBCHEM_SHAPE_SELFOVERLAP>
1002.232

> <PUBCHEM_SHAPE_VOLUME>
247.9

> <PUBCHEM_COORDINATE_TYPE>
2
5
10

$$$$