44286211
  -OEChem-03242010093D

 54 53  0     1  0  0  0  0  0999 V2000
    0.5927    1.6988    1.8268 O   0  0  0  0  0  0  0  0  0  0  0  0
   -2.3128    0.3879   -0.6323 O   0  0  0  0  0  0  0  0  0  0  0  0
   -2.6145    1.9339    1.0528 O   0  0  0  0  0  0  0  0  0  0  0  0
   -4.6866   -1.6994    1.0721 O   0  0  0  0  0  0  0  0  0  0  0  0
   -2.3926   -1.5380    1.2408 O   0  0  0  0  0  0  0  0  0  0  0  0
    0.5319    1.1773    0.4953 C   0  0  2  0  0  0  0  0  0  0  0  0
    1.9222    1.2969   -0.1482 C   0  0  0  0  0  0  0  0  0  0  0  0
    2.8964    0.2302    0.3670 C   0  0  0  0  0  0  0  0  0  0  0  0
   -0.5692    1.9406   -0.2708 C   0  0  2  0  0  0  0  0  0  0  0  0
    4.2802    0.3911   -0.2663 C   0  0  0  0  0  0  0  0  0  0  0  0
    5.2463   -0.6895    0.2246 C   0  0  0  0  0  0  0  0  0  0  0  0
    6.6193   -0.5461   -0.4358 C   0  0  0  0  0  0  0  0  0  0  0  0
   -0.5339    3.4509   -0.0558 C   0  0  0  0  0  0  0  0  0  0  0  0
   -1.9435    1.4409    0.1551 C   0  0  0  0  0  0  0  0  0  0  0  0
   -3.6040   -0.1643   -0.3571 C   0  0  1  0  0  0  0  0  0  0  0  0
   -4.2092   -0.7579   -1.6437 C   0  0  0  0  0  0  0  0  0  0  0  0
    7.6350   -1.5848    0.0447 C   0  0  0  0  0  0  0  0  0  0  0  0
   -3.3487   -1.9171   -2.1564 C   0  0  0  0  0  0  0  0  0  0  0  0
   -4.3674    0.2866   -2.7543 C   0  0  0  0  0  0  0  0  0  0  0  0
   -3.4595   -1.1978    0.7458 C   0  0  0  0  0  0  0  0  0  0  0  0
    9.0087   -1.4303   -0.5896 C   0  0  0  0  0  0  0  0  0  0  0  0
   -4.6909   -2.7100    2.0853 C   0  0  0  0  0  0  0  0  0  0  0  0
    0.2494    0.1196    0.5672 H   0  0  0  0  0  0  0  0  0  0  0  0
    1.8336    1.1861   -1.2357 H   0  0  0  0  0  0  0  0  0  0  0  0
    2.3409    2.2905    0.0533 H   0  0  0  0  0  0  0  0  0  0  0  0
    2.9901    0.3002    1.4566 H   0  0  0  0  0  0  0  0  0  0  0  0
    2.5002   -0.7667    0.1391 H   0  0  0  0  0  0  0  0  0  0  0  0
   -0.4742    1.7497   -1.3478 H   0  0  0  0  0  0  0  0  0  0  0  0
    4.6828    1.3824   -0.0250 H   0  0  0  0  0  0  0  0  0  0  0  0
    4.1918    0.3347   -1.3582 H   0  0  0  0  0  0  0  0  0  0  0  0
    4.8368   -1.6821    0.0019 H   0  0  0  0  0  0  0  0  0  0  0  0
    5.3534   -0.6200    1.3138 H   0  0  0  0  0  0  0  0  0  0  0  0
    6.5089   -0.6292   -1.5242 H   0  0  0  0  0  0  0  0  0  0  0  0
    7.0137    0.4577   -0.2338 H   0  0  0  0  0  0  0  0  0  0  0  0
   -0.6835    3.7304    0.9927 H   0  0  0  0  0  0  0  0  0  0  0  0
    0.4229    3.8689   -0.3848 H   0  0  0  0  0  0  0  0  0  0  0  0
   -1.3255    3.9403   -0.6349 H   0  0  0  0  0  0  0  0  0  0  0  0
   -4.2798    0.6210    0.0069 H   0  0  0  0  0  0  0  0  0  0  0  0
   -5.2062   -1.1569   -1.4175 H   0  0  0  0  0  0  0  0  0  0  0  0
    7.7398   -1.5131    1.1339 H   0  0  0  0  0  0  0  0  0  0  0  0
    7.2553   -2.5903   -0.1722 H   0  0  0  0  0  0  0  0  0  0  0  0
    1.1780    1.1223    2.3455 H   0  0  0  0  0  0  0  0  0  0  0  0
   -2.3289   -1.5930   -2.3903 H   0  0  0  0  0  0  0  0  0  0  0  0
   -3.7801   -2.3379   -3.0715 H   0  0  0  0  0  0  0  0  0  0  0  0
   -3.2897   -2.7307   -1.4267 H   0  0  0  0  0  0  0  0  0  0  0  0
   -3.3990    0.6860   -3.0734 H   0  0  0  0  0  0  0  0  0  0  0  0
   -4.8570   -0.1506   -3.6310 H   0  0  0  0  0  0  0  0  0  0  0  0
   -4.9832    1.1237   -2.4094 H   0  0  0  0  0  0  0  0  0  0  0  0
    8.9494   -1.5330   -1.6777 H   0  0  0  0  0  0  0  0  0  0  0  0
    9.6913   -2.1973   -0.2109 H   0  0  0  0  0  0  0  0  0  0  0  0
    9.4363   -0.4492   -0.3599 H   0  0  0  0  0  0  0  0  0  0  0  0
   -5.7258   -3.0212    2.2507 H   0  0  0  0  0  0  0  0  0  0  0  0
   -4.2905   -2.3095    3.0215 H   0  0  0  0  0  0  0  0  0  0  0  0
   -4.1114   -3.5779    1.7562 H   0  0  0  0  0  0  0  0  0  0  0  0
  1  6  1  0  0  0  0
  1 42  1  0  0  0  0
  2 14  1  0  0  0  0
  2 15  1  0  0  0  0
  3 14  2  0  0  0  0
  4 20  1  0  0  0  0
  4 22  1  0  0  0  0
  5 20  2  0  0  0  0
  6  7  1  0  0  0  0
  6  9  1  0  0  0  0
  6 23  1  0  0  0  0
  7  8  1  0  0  0  0
  7 24  1  0  0  0  0
  7 25  1  0  0  0  0
  8 10  1  0  0  0  0
  8 26  1  0  0  0  0
  8 27  1  0  0  0  0
  9 13  1  0  0  0  0
  9 14  1  0  0  0  0
  9 28  1  0  0  0  0
 10 11  1  0  0  0  0
 10 29  1  0  0  0  0
 10 30  1  0  0  0  0
 11 12  1  0  0  0  0
 11 31  1  0  0  0  0
 11 32  1  0  0  0  0
 12 17  1  0  0  0  0
 12 33  1  0  0  0  0
 12 34  1  0  0  0  0
 13 35  1  0  0  0  0
 13 36  1  0  0  0  0
 13 37  1  0  0  0  0
 15 16  1  0  0  0  0
 15 20  1  0  0  0  0
 15 38  1  0  0  0  0
 16 18  1  0  0  0  0
 16 19  1  0  0  0  0
 16 39  1  0  0  0  0
 17 21  1  0  0  0  0
 17 40  1  0  0  0  0
 17 41  1  0  0  0  0
 18 43  1  0  0  0  0
 18 44  1  0  0  0  0
 18 45  1  0  0  0  0
 19 46  1  0  0  0  0
 19 47  1  0  0  0  0
 19 48  1  0  0  0  0
 21 49  1  0  0  0  0
 21 50  1  0  0  0  0
 21 51  1  0  0  0  0
 22 52  1  0  0  0  0
 22 53  1  0  0  0  0
 22 54  1  0  0  0  0
M  END
> <PUBCHEM_COMPOUND_CID>
44286211

> <PUBCHEM_CONFORMER_RMSD>
1.2

> <PUBCHEM_CONFORMER_DIVERSEORDER>
1
47
8
52
88
55
91
33
61
10
27
138
25
77
29
130
17
146
152
156
109
144
149
143
84
101
137
112
136
92
119
38
37
114
148
139
71
105
142
59
103
134
13
98
22
45
135
76
64
46
82
44
57
35
2
95
113
16
116
83
118
89
32
53
85
79
11
120
65
6
42
34
151
121
4
54
5
145
19
96
20
150
70
39
99
126
18
155
9
51
147
133
40
125
75
122
108
7
107
80
58
24
67
49
56
102
154
43
86
128
115
153
62
106
87
140
123
23
21
104
48
132
110
93
3
90
117
129
63
31
15
81
66
68
26
14
12
78
74
100
50
73
30
36
127
97
131
41
124
60
94
141
111
72
69
28

> <PUBCHEM_MMFF94_PARTIAL_CHARGES>
12
1 -0.68
14 0.66
15 0.34
2 -0.43
20 0.66
22 0.28
3 -0.57
4 -0.43
42 0.4
5 -0.57
6 0.28
9 0.06

> <PUBCHEM_EFFECTIVE_ROTOR_COUNT>
13

> <PUBCHEM_PHARMACOPHORE_FEATURES>
9
1 1 acceptor
1 1 donor
1 13 hydrophobe
1 21 hydrophobe
1 3 acceptor
1 5 acceptor
3 11 12 17 hydrophobe
3 16 18 19 hydrophobe
3 7 8 10 hydrophobe

> <PUBCHEM_HEAVY_ATOM_COUNT>
22

> <PUBCHEM_ATOM_DEF_STEREO_COUNT>
3

> <PUBCHEM_ATOM_UDEF_STEREO_COUNT>
0

> <PUBCHEM_BOND_DEF_STEREO_COUNT>
0

> <PUBCHEM_BOND_UDEF_STEREO_COUNT>
0

> <PUBCHEM_ISOTOPIC_ATOM_COUNT>
0

> <PUBCHEM_COMPONENT_COUNT>
1

> <PUBCHEM_CACTVS_TAUTO_COUNT>
1

> <PUBCHEM_CONFORMER_ID>
02A3C10300000001

> <PUBCHEM_MMFF94_ENERGY>
23.5194

> <PUBCHEM_FEATURE_SELFOVERLAP>
45.685

> <PUBCHEM_SHAPE_FINGERPRINT>
10 15 11527946764328610078
10291535 26 12324248226275377140
105312 117 13407084669690022016
11315181 36 17988921146241142840
12082328 90 14418138396519865280
12403259 118 13326576297493893667
12633257 1 16414649283857364953
12760667 363 18272368668223068110
12892183 10 13398641562196212740
13103583 49 16200157620272231082
13288520 33 18408888412699770512
13673619 4 17604720005344025859
13690498 29 17313103098718624227
14211702 104 18269843004827611446
14251740 79 17894353289027838210
14251764 75 12831979537487578391
14950920 106 15482378842069960330
15183329 4 17023178302376489786
15188451 53 15625928898396299941
15880784 105 17346588720830888066
17780758 139 15697998535279912434
18643901 69 17603590759615922611
18927931 339 18343023272333337150
193927 3 18342185474722521284
20281389 69 10015863181033589206
21033650 10 16370717119600811285
21307412 95 17751074915992155227
21713013 43 17313939865842977369
22288116 15 16009040501080634938
23198884 109 14056715746935333738
23402539 116 18187930539065916884
23559900 14 18261669376571960744
2838139 119 13118277075740350614
312425 54 15698011716930352238
328310 18 14923943406029917468
484985 159 18261117370258026619
4938544 92 15841559522255874576
5104073 3 16343140367253642498
5486654 36 18342184362052068889
559249 180 18340767044514338605
58260988 114 18042708207400118697
6431902 208 18411419488762498430
9981440 41 12391253599254777535
999808 66 18412832382715846250

> <PUBCHEM_SHAPE_MULTIPOLES>
423.4
18.53
2.93
1.88
51.21
1.02
-0.68
-16.74
-4.04
-2.51
0.98
-4.18
-0.91
1.51

> <PUBCHEM_SHAPE_SELFOVERLAP>
803.516

> <PUBCHEM_SHAPE_VOLUME>
262

> <PUBCHEM_COORDINATE_TYPE>
2
5
10

$$$$