89566370
  -OEChem-03242010103D

 45 46  0     0  0  0  0  0  0999 V2000
    4.2388    2.7939    0.7172 O   0  0  0  0  0  0  0  0  0  0  0  0
    6.2350   -1.3081   -0.7397 O   0  0  0  0  0  0  0  0  0  0  0  0
    6.4757    1.3725   -0.0839 O   0  0  0  0  0  0  0  0  0  0  0  0
   -5.8607   -1.4829    1.0627 O   0  0  0  0  0  0  0  0  0  0  0  0
    1.3975   -2.3784    0.4386 O   0  0  0  0  0  0  0  0  0  0  0  0
    2.7772   -0.5050    0.1326 C   0  0  0  0  0  0  0  0  0  0  0  0
    4.1371    1.4751    0.3912 C   0  0  0  0  0  0  0  0  0  0  0  0
    5.1442   -0.5941   -0.3439 C   0  0  0  0  0  0  0  0  0  0  0  0
    3.9021   -1.2245   -0.2713 C   0  0  0  0  0  0  0  0  0  0  0  0
    2.8948    0.8448    0.4637 C   0  0  0  0  0  0  0  0  0  0  0  0
    5.2617    0.7556   -0.0126 C   0  0  0  0  0  0  0  0  0  0  0  0
    1.4566   -1.1756    0.2082 C   0  0  0  0  0  0  0  0  0  0  0  0
   -4.6752   -0.0207   -0.4310 C   0  0  0  0  0  0  0  0  0  0  0  0
   -5.8489   -0.4208    0.2076 C   0  0  0  0  0  0  0  0  0  0  0  0
    0.2444   -0.3468   -0.0369 C   0  0  0  0  0  0  0  0  0  0  0  0
   -3.4197   -0.7239   -0.2051 C   0  0  0  0  0  0  0  0  0  0  0  0
   -4.6915    1.0687   -1.3019 C   0  0  0  0  0  0  0  0  0  0  0  0
   -7.0391    0.2686   -0.0246 C   0  0  0  0  0  0  0  0  0  0  0  0
   -0.9703   -0.9127    0.0006 C   0  0  0  0  0  0  0  0  0  0  0  0
   -2.1880   -0.1670   -0.2396 C   0  0  0  0  0  0  0  0  0  0  0  0
   -5.8817    1.7582   -1.5341 C   0  0  0  0  0  0  0  0  0  0  0  0
   -7.0556    1.3582   -0.8955 C   0  0  0  0  0  0  0  0  0  0  0  0
    3.0413    3.4559    1.1199 C   0  0  0  0  0  0  0  0  0  0  0  0
    6.0282   -2.6825   -1.0603 C   0  0  0  0  0  0  0  0  0  0  0  0
   -5.6038   -1.2085    2.4380 C   0  0  0  0  0  0  0  0  0  0  0  0
    3.7548   -2.2690   -0.5239 H   0  0  0  0  0  0  0  0  0  0  0  0
    2.0144    1.3637    0.8200 H   0  0  0  0  0  0  0  0  0  0  0  0
    0.3468    0.7005   -0.2955 H   0  0  0  0  0  0  0  0  0  0  0  0
   -3.5069   -1.7860    0.0164 H   0  0  0  0  0  0  0  0  0  0  0  0
   -3.8024    1.3988   -1.8328 H   0  0  0  0  0  0  0  0  0  0  0  0
   -7.9578   -0.0377    0.4683 H   0  0  0  0  0  0  0  0  0  0  0  0
   -1.0829   -1.9692    0.2300 H   0  0  0  0  0  0  0  0  0  0  0  0
   -2.0686    0.8955   -0.4362 H   0  0  0  0  0  0  0  0  0  0  0  0
   -5.8959    2.6038   -2.2156 H   0  0  0  0  0  0  0  0  0  0  0  0
   -7.9825    1.8943   -1.0773 H   0  0  0  0  0  0  0  0  0  0  0  0
    6.3636    2.3020    0.1811 H   0  0  0  0  0  0  0  0  0  0  0  0
    3.3056    4.4980    1.3284 H   0  0  0  0  0  0  0  0  0  0  0  0
    2.6430    3.0393    2.0514 H   0  0  0  0  0  0  0  0  0  0  0  0
    2.2976    3.4741    0.3158 H   0  0  0  0  0  0  0  0  0  0  0  0
    7.0000   -3.0942   -1.3523 H   0  0  0  0  0  0  0  0  0  0  0  0
    5.3625   -2.8007   -1.9221 H   0  0  0  0  0  0  0  0  0  0  0  0
    5.6910   -3.2546   -0.1891 H   0  0  0  0  0  0  0  0  0  0  0  0
   -4.6231   -0.7403    2.5676 H   0  0  0  0  0  0  0  0  0  0  0  0
   -6.3848   -0.5618    2.8504 H   0  0  0  0  0  0  0  0  0  0  0  0
   -5.6122   -2.1563    2.9833 H   0  0  0  0  0  0  0  0  0  0  0  0
  1  7  1  0  0  0  0
  1 23  1  0  0  0  0
  2  8  1  0  0  0  0
  2 24  1  0  0  0  0
  3 11  1  0  0  0  0
  3 36  1  0  0  0  0
  4 14  1  0  0  0  0
  4 25  1  0  0  0  0
  5 12  2  0  0  0  0
  6  9  2  0  0  0  0
  6 10  1  0  0  0  0
  6 12  1  0  0  0  0
  7 10  2  0  0  0  0
  7 11  1  0  0  0  0
  8  9  1  0  0  0  0
  8 11  2  0  0  0  0
  9 26  1  0  0  0  0
 10 27  1  0  0  0  0
 12 15  1  0  0  0  0
 13 14  1  0  0  0  0
 13 16  1  0  0  0  0
 13 17  2  0  0  0  0
 14 18  2  0  0  0  0
 15 19  2  0  0  0  0
 15 28  1  0  0  0  0
 16 20  2  0  0  0  0
 16 29  1  0  0  0  0
 17 21  1  0  0  0  0
 17 30  1  0  0  0  0
 18 22  1  0  0  0  0
 18 31  1  0  0  0  0
 19 20  1  0  0  0  0
 19 32  1  0  0  0  0
 20 33  1  0  0  0  0
 21 22  2  0  0  0  0
 21 34  1  0  0  0  0
 22 35  1  0  0  0  0
 23 37  1  0  0  0  0
 23 38  1  0  0  0  0
 23 39  1  0  0  0  0
 24 40  1  0  0  0  0
 24 41  1  0  0  0  0
 24 42  1  0  0  0  0
 25 43  1  0  0  0  0
 25 44  1  0  0  0  0
 25 45  1  0  0  0  0
M  END
> <PUBCHEM_COMPOUND_CID>
89566370

> <PUBCHEM_CONFORMER_RMSD>
0.8

> <PUBCHEM_CONFORMER_DIVERSEORDER>
1
49
13
32
22
67
8
59
20
89
74
35
6
25
7
9
82
47
10
88
36
3
93
83
15
12
72
26
4
14
65
41
37
90
17
39
54
5
52
69
2
33
75
28
29
16
62
31
19
63
80
24
87
51
11
57
96
34
55
48
18
78
68
64
71
95
23
43
53
38
92
70
91
56
73
81
76
77
44
86
58
46
27
42
84
50
94
85
21
60
40
45
30
61
79
66

> <PUBCHEM_MMFF94_PARTIAL_CHARGES>
36
1 -0.36
10 -0.15
11 0.08
12 0.47
13 0.03
14 0.08
15 -0.14
16 -0.18
17 -0.15
18 -0.15
19 -0.15
2 -0.36
20 -0.15
21 -0.15
22 -0.15
23 0.28
24 0.28
25 0.28
26 0.15
27 0.15
28 0.15
29 0.15
3 -0.53
30 0.15
31 0.15
32 0.15
33 0.15
34 0.15
35 0.15
36 0.45
4 -0.36
5 -0.57
6 0.09
7 0.08
8 0.08
9 -0.15

> <PUBCHEM_EFFECTIVE_ROTOR_COUNT>
7

> <PUBCHEM_PHARMACOPHORE_FEATURES>
7
1 1 acceptor
1 2 acceptor
1 3 donor
1 4 acceptor
1 5 acceptor
6 13 14 17 18 21 22 rings
6 6 7 8 9 10 11 rings

> <PUBCHEM_HEAVY_ATOM_COUNT>
25

> <PUBCHEM_ATOM_DEF_STEREO_COUNT>
0

> <PUBCHEM_ATOM_UDEF_STEREO_COUNT>
0

> <PUBCHEM_BOND_DEF_STEREO_COUNT>
2

> <PUBCHEM_BOND_UDEF_STEREO_COUNT>
0

> <PUBCHEM_ISOTOPIC_ATOM_COUNT>
0

> <PUBCHEM_COMPONENT_COUNT>
1

> <PUBCHEM_CACTVS_TAUTO_COUNT>
4

> <PUBCHEM_CONFORMER_ID>
0556ACA200000001

> <PUBCHEM_MMFF94_ENERGY>
101.73

> <PUBCHEM_FEATURE_SELFOVERLAP>
35.523

> <PUBCHEM_SHAPE_FINGERPRINT>
10 15 18041276664012961897
10411042 1 18053948343400383422
10638233 991 17275105063404801753
10763959 59 18409446994566054388
11497681 19 17985821773924880959
11991303 11 17560787875726708487
12403259 415 18334012817393236563
12616971 3 17989199365262969143
12730499 353 18335423465422171298
14170010 4 18201998837961925928
14251764 18 13695878030159979201
14556957 393 17132119031269924681
14933364 13 18335139787036930437
15081414 286 18340770445965251104
15119646 104 16056886780091740822
15183329 4 16917068862626368173
15348495 7 18335139847193034931
15419008 47 18260265231045047621
17844677 252 18342179955847794829
18335252 114 18271515420997782396
21033648 29 18188482579258879784
21315759 40 16773790386241581479
221357 26 18341891853805274332
2303208 19 18334022695965996267
23081809 10 16415481545139550827
23559900 14 18272925046465128675
249057 3 18131631180179503270
2747138 104 17750527341947326851
29717793 49 17489588939802491502
3545911 37 18259984843195449247
397830 11 18263087772225148467
4073 2 17676492748202583699
44317340 157 17988354983541024481
5104073 3 17894908478523825987
5364581 5 17823422785294160029
59755656 215 18261110721084500254
9658208 31 17895198843777514314
9995097 60 18335137609662727493

> <PUBCHEM_SHAPE_MULTIPOLES>
485.14
22.12
2.68
1.27
13.76
1.45
-0.43
1.6
2.79
-4.17
-0.47
2.02
-0.05
4.07

> <PUBCHEM_SHAPE_SELFOVERLAP>
1028.405

> <PUBCHEM_SHAPE_VOLUME>
272.4

> <PUBCHEM_COORDINATE_TYPE>
2
5
10

$$$$