56945304
  -OEChem-03242010103D

 34 35  0     0  0  0  0  0  0999 V2000
   -6.7497    1.2489   -0.0603 Br  0  0  0  0  0  0  0  0  0  0  0  0
    5.0197    1.4682    0.5564 O   0  0  0  0  0  0  0  0  0  0  0  0
    3.3078   -2.8224   -0.7078 O   0  0  0  0  0  0  0  0  0  0  0  0
    5.4470   -1.2108   -0.0028 O   0  0  0  0  0  0  0  0  0  0  0  0
    0.1434    2.1548   -0.5393 O   0  0  0  0  0  0  0  0  0  0  0  0
   -2.5317   -2.8442   -0.4784 O   0  5  0  0  0  0  0  0  0  0  0  0
   -2.4250   -2.3644    1.6611 O   0  0  0  0  0  0  0  0  0  0  0  0
   -0.7743    0.0433   -0.0857 N   0  0  0  0  0  0  0  0  0  0  0  0
   -2.6600   -2.0398    0.4738 N   0  3  0  0  0  0  0  0  0  0  0  0
    1.6184    0.3831   -0.2276 C   0  0  0  0  0  0  0  0  0  0  0  0
   -2.1671    0.3014   -0.0757 C   0  0  0  0  0  0  0  0  0  0  0  0
    0.2783    0.9424   -0.3076 C   0  0  0  0  0  0  0  0  0  0  0  0
    2.6932    1.1976    0.1290 C   0  0  0  0  0  0  0  0  0  0  0  0
    1.8296   -0.9668   -0.5082 C   0  0  0  0  0  0  0  0  0  0  0  0
    3.9790    0.6623    0.2050 C   0  0  0  0  0  0  0  0  0  0  0  0
   -3.0876   -0.7106    0.1972 C   0  0  0  0  0  0  0  0  0  0  0  0
    3.1154   -1.5022   -0.4322 C   0  0  0  0  0  0  0  0  0  0  0  0
    4.1900   -0.6876   -0.0756 C   0  0  0  0  0  0  0  0  0  0  0  0
   -2.6128    1.5956   -0.3441 C   0  0  0  0  0  0  0  0  0  0  0  0
   -4.4534   -0.4283    0.2019 C   0  0  0  0  0  0  0  0  0  0  0  0
   -3.9787    1.8780   -0.3393 C   0  0  0  0  0  0  0  0  0  0  0  0
   -4.8990    0.8661   -0.0662 C   0  0  0  0  0  0  0  0  0  0  0  0
    4.7174    2.8357    0.8266 C   0  0  0  0  0  0  0  0  0  0  0  0
    2.4767    2.2382    0.3451 H   0  0  0  0  0  0  0  0  0  0  0  0
   -0.5333   -0.9126    0.1561 H   0  0  0  0  0  0  0  0  0  0  0  0
    1.0227   -1.6199   -0.8287 H   0  0  0  0  0  0  0  0  0  0  0  0
   -1.9723    2.4347   -0.5711 H   0  0  0  0  0  0  0  0  0  0  0  0
   -5.1706   -1.2186    0.4150 H   0  0  0  0  0  0  0  0  0  0  0  0
   -4.3110    2.8911   -0.5517 H   0  0  0  0  0  0  0  0  0  0  0  0
    2.4535   -3.2297   -0.9318 H   0  0  0  0  0  0  0  0  0  0  0  0
    5.3999   -2.1558   -0.2298 H   0  0  0  0  0  0  0  0  0  0  0  0
    5.6605    3.3279    1.0866 H   0  0  0  0  0  0  0  0  0  0  0  0
    4.0567    2.9399    1.6940 H   0  0  0  0  0  0  0  0  0  0  0  0
    4.3280    3.3469   -0.0606 H   0  0  0  0  0  0  0  0  0  0  0  0
  1 22  1  0  0  0  0
  2 15  1  0  0  0  0
  2 23  1  0  0  0  0
  3 17  1  0  0  0  0
  3 30  1  0  0  0  0
  4 18  1  0  0  0  0
  4 31  1  0  0  0  0
  5 12  2  0  0  0  0
  6  9  1  0  0  0  0
  7  9  2  0  0  0  0
  8 11  1  0  0  0  0
  8 12  1  0  0  0  0
  8 25  1  0  0  0  0
  9 16  1  0  0  0  0
 10 12  1  0  0  0  0
 10 13  1  0  0  0  0
 10 14  2  0  0  0  0
 11 16  2  0  0  0  0
 11 19  1  0  0  0  0
 13 15  2  0  0  0  0
 13 24  1  0  0  0  0
 14 17  1  0  0  0  0
 14 26  1  0  0  0  0
 15 18  1  0  0  0  0
 16 20  1  0  0  0  0
 17 18  2  0  0  0  0
 19 21  2  0  0  0  0
 19 27  1  0  0  0  0
 20 22  2  0  0  0  0
 20 28  1  0  0  0  0
 21 22  1  0  0  0  0
 21 29  1  0  0  0  0
 23 32  1  0  0  0  0
 23 33  1  0  0  0  0
 23 34  1  0  0  0  0
M  CHG  2   6  -1   9   1
M  END
> <PUBCHEM_COMPOUND_CID>
56945304

> <PUBCHEM_CONFORMER_RMSD>
0.8

> <PUBCHEM_CONFORMER_DIVERSEORDER>
3
13
16
15
17
7
4
10
6
12
14
9
11
5
18
2
8
1

> <PUBCHEM_MMFF94_PARTIAL_CHARGES>
31
1 -0.11
10 0.09
11 0.12
12 0.54
13 -0.15
14 -0.15
15 0.08
16 0.13
17 0.08
18 0.08
19 -0.15
2 -0.36
20 -0.15
21 -0.15
22 0.11
23 0.28
24 0.15
25 0.37
26 0.15
27 0.15
28 0.15
29 0.15
3 -0.53
30 0.45
31 0.45
4 -0.53
5 -0.57
6 -0.52
7 -0.52
8 -0.55
9 0.91

> <PUBCHEM_EFFECTIVE_ROTOR_COUNT>
5

> <PUBCHEM_PHARMACOPHORE_FEATURES>
11
1 1 hydrophobe
1 2 acceptor
1 3 donor
1 4 donor
1 5 acceptor
1 6 acceptor
1 6 anion
1 7 acceptor
1 8 donor
6 10 13 14 15 17 18 rings
6 11 16 19 20 21 22 rings

> <PUBCHEM_HEAVY_ATOM_COUNT>
23

> <PUBCHEM_ATOM_DEF_STEREO_COUNT>
0

> <PUBCHEM_ATOM_UDEF_STEREO_COUNT>
0

> <PUBCHEM_BOND_DEF_STEREO_COUNT>
0

> <PUBCHEM_BOND_UDEF_STEREO_COUNT>
0

> <PUBCHEM_ISOTOPIC_ATOM_COUNT>
0

> <PUBCHEM_COMPONENT_COUNT>
1

> <PUBCHEM_CACTVS_TAUTO_COUNT>
22

> <PUBCHEM_CONFORMER_ID>
0364EA9800000003

> <PUBCHEM_MMFF94_ENERGY>
84.731

> <PUBCHEM_FEATURE_SELFOVERLAP>
55.907

> <PUBCHEM_SHAPE_FINGERPRINT>
10366900 7 17418374705331985081
10616163 171 18338802328572219879
10835480 77 18412538842738430713
10906281 52 18201175290536127421
11045977 3 18411419518663323320
11405975 8 18409728452568156592
11578080 2 17344894433811105235
12107183 9 17480872921828965953
12403259 415 18261951835148774117
12596602 18 15554149441786887934
12788726 201 17060347275388779145
13402501 40 18338519638393941183
13533116 47 18059292067697732841
13544592 145 18336832965823562015
13583140 156 17988358303250245881
14341114 176 18411704296180124096
14617045 38 18336274439765804166
15042514 8 18188780565144833163
15196674 1 18411136960890753903
15375358 24 18412826880276950415
17844677 252 18270967847027773977
17980427 23 17605273085188573932
1813 80 16950285100264269220
19141452 34 18409730673182351479
20645477 56 18334294266980165917
20645477 70 17917713461748035878
21065198 57 18411418406124433812
21267235 1 18338525139961924820
21279426 13 18049442539646785333
21859007 373 17604693466583524389
22122407 14 17203618111617655473
23402539 116 18341607110616882029
23557571 272 17749389213619667996
23558518 356 17462574123833950201
23559900 14 18411979174334923064
239999 70 18130793326612273862
26918003 58 18342455924396707896
3004659 81 18261394408311733300
335352 9 18409450254213753430
34934 24 18410006658821592495
350125 39 18411698803845204956
3545911 37 18410576175685382292
3633792 109 18339072697766069773
4015057 19 18272074020497803753
4073 2 18187367675079991490
4214541 1 18410012117804283437
5104073 3 18410012147647372832
5924683 9 18199462332918851775
59755656 215 18410859815952981070
6138700 20 18120096078969732583
9709674 26 18410298016455066143

> <PUBCHEM_SHAPE_MULTIPOLES>
434.09
13.83
2.88
0.82
4.23
0.87
0.16
-3.97
0.98
-1.27
0.25
0.07
0.18
1.62

> <PUBCHEM_SHAPE_SELFOVERLAP>
922.189

> <PUBCHEM_SHAPE_VOLUME>
248.9

> <PUBCHEM_COORDINATE_TYPE>
2
5
10

$$$$