56946728
  -OEChem-03242010103D

 55 57  0     0  0  0  0  0  0999 V2000
    5.9751    2.1915    0.8079 O   0  0  0  0  0  0  0  0  0  0  0  0
    4.7413   -2.1192   -0.8745 O   0  0  0  0  0  0  0  0  0  0  0  0
    6.6895   -0.3651    0.0162 O   0  0  0  0  0  0  0  0  0  0  0  0
    1.0605    2.4574   -0.3012 O   0  0  0  0  0  0  0  0  0  0  0  0
   -3.1566   -3.4795    0.4794 O   0  0  0  0  0  0  0  0  0  0  0  0
    0.3532    0.2285   -0.0620 N   0  0  0  0  0  0  0  0  0  0  0  0
   -1.2837   -2.0645    0.2663 N   0  0  0  0  0  0  0  0  0  0  0  0
   -1.0409    0.3337   -0.0510 C   0  0  0  0  0  0  0  0  0  0  0  0
   -1.8459   -0.7938    0.1103 C   0  0  0  0  0  0  0  0  0  0  0  0
   -3.8184    0.5932   -0.0367 C   0  0  0  0  0  0  0  0  0  0  0  0
   -3.2346   -0.6641    0.1174 C   0  0  0  0  0  0  0  0  0  0  0  0
   -1.6246    1.5913   -0.2051 C   0  0  0  0  0  0  0  0  0  0  0  0
   -3.0134    1.7210   -0.1979 C   0  0  0  0  0  0  0  0  0  0  0  0
   -5.2589    0.7288   -0.0299 C   0  0  0  0  0  0  0  0  0  0  0  0
    2.7149    0.8309   -0.1312 C   0  0  0  0  0  0  0  0  0  0  0  0
    1.2923    1.2590   -0.1822 C   0  0  0  0  0  0  0  0  0  0  0  0
    3.0712   -0.4571   -0.5309 C   0  0  0  0  0  0  0  0  0  0  0  0
    3.6938    1.7175    0.3178 C   0  0  0  0  0  0  0  0  0  0  0  0
    5.0287    1.3160    0.3673 C   0  0  0  0  0  0  0  0  0  0  0  0
    4.4062   -0.8585   -0.4815 C   0  0  0  0  0  0  0  0  0  0  0  0
    5.3849    0.0280   -0.0324 C   0  0  0  0  0  0  0  0  0  0  0  0
   -5.9737    0.6373   -1.2240 C   0  0  0  0  0  0  0  0  0  0  0  0
   -5.9326    0.9508    1.1710 C   0  0  0  0  0  0  0  0  0  0  0  0
   -7.3624    0.7681   -1.2174 C   0  0  0  0  0  0  0  0  0  0  0  0
   -7.3214    1.0815    1.1779 C   0  0  0  0  0  0  0  0  0  0  0  0
   -1.9461   -3.2854    0.4368 C   0  0  0  0  0  0  0  0  0  0  0  0
   -8.0363    0.9901   -0.0163 C   0  0  0  0  0  0  0  0  0  0  0  0
   -0.9751   -4.4318    0.5693 C   0  0  0  0  0  0  0  0  0  0  0  0
    6.5939    3.0234   -0.1717 C   0  0  0  0  0  0  0  0  0  0  0  0
    3.6805   -2.9622   -1.3200 C   0  0  0  0  0  0  0  0  0  0  0  0
    7.1388   -0.9668    1.2282 C   0  0  0  0  0  0  0  0  0  0  0  0
   -3.9148   -1.4955    0.2381 H   0  0  0  0  0  0  0  0  0  0  0  0
   -1.0793    2.5134   -0.3416 H   0  0  0  0  0  0  0  0  0  0  0  0
   -3.4538    2.7079   -0.3206 H   0  0  0  0  0  0  0  0  0  0  0  0
    0.7118   -0.7023    0.1035 H   0  0  0  0  0  0  0  0  0  0  0  0
    2.3016   -1.1069   -0.9266 H   0  0  0  0  0  0  0  0  0  0  0  0
    3.4296    2.7224    0.6383 H   0  0  0  0  0  0  0  0  0  0  0  0
   -0.2715   -2.1209    0.2519 H   0  0  0  0  0  0  0  0  0  0  0  0
   -5.4642    0.4644   -2.1691 H   0  0  0  0  0  0  0  0  0  0  0  0
   -5.3907    1.0246    2.1110 H   0  0  0  0  0  0  0  0  0  0  0  0
   -7.9192    0.6969   -2.1471 H   0  0  0  0  0  0  0  0  0  0  0  0
   -7.8462    1.2544    2.1129 H   0  0  0  0  0  0  0  0  0  0  0  0
   -9.1176    1.0918   -0.0111 H   0  0  0  0  0  0  0  0  0  0  0  0
   -0.3265   -4.2701    1.4350 H   0  0  0  0  0  0  0  0  0  0  0  0
   -0.3652   -4.5071   -0.3354 H   0  0  0  0  0  0  0  0  0  0  0  0
   -1.5233   -5.3679    0.7070 H   0  0  0  0  0  0  0  0  0  0  0  0
    7.1118    2.4167   -0.9212 H   0  0  0  0  0  0  0  0  0  0  0  0
    5.8500    3.6644   -0.6553 H   0  0  0  0  0  0  0  0  0  0  0  0
    7.3279    3.6580    0.3323 H   0  0  0  0  0  0  0  0  0  0  0  0
    2.9519   -3.1534   -0.5245 H   0  0  0  0  0  0  0  0  0  0  0  0
    3.2143   -2.5767   -2.2332 H   0  0  0  0  0  0  0  0  0  0  0  0
    4.1260   -3.9289   -1.5778 H   0  0  0  0  0  0  0  0  0  0  0  0
    8.1947   -1.2255    1.1110 H   0  0  0  0  0  0  0  0  0  0  0  0
    6.5757   -1.8820    1.4363 H   0  0  0  0  0  0  0  0  0  0  0  0
    7.0412   -0.2677    2.0648 H   0  0  0  0  0  0  0  0  0  0  0  0
  1 19  1  0  0  0  0
  1 29  1  0  0  0  0
  2 20  1  0  0  0  0
  2 30  1  0  0  0  0
  3 21  1  0  0  0  0
  3 31  1  0  0  0  0
  4 16  2  0  0  0  0
  5 26  2  0  0  0  0
  6  8  1  0  0  0  0
  6 16  1  0  0  0  0
  6 35  1  0  0  0  0
  7  9  1  0  0  0  0
  7 26  1  0  0  0  0
  7 38  1  0  0  0  0
  8  9  2  0  0  0  0
  8 12  1  0  0  0  0
  9 11  1  0  0  0  0
 10 11  2  0  0  0  0
 10 13  1  0  0  0  0
 10 14  1  0  0  0  0
 11 32  1  0  0  0  0
 12 13  2  0  0  0  0
 12 33  1  0  0  0  0
 13 34  1  0  0  0  0
 14 22  2  0  0  0  0
 14 23  1  0  0  0  0
 15 16  1  0  0  0  0
 15 17  2  0  0  0  0
 15 18  1  0  0  0  0
 17 20  1  0  0  0  0
 17 36  1  0  0  0  0
 18 19  2  0  0  0  0
 18 37  1  0  0  0  0
 19 21  1  0  0  0  0
 20 21  2  0  0  0  0
 22 24  1  0  0  0  0
 22 39  1  0  0  0  0
 23 25  2  0  0  0  0
 23 40  1  0  0  0  0
 24 27  2  0  0  0  0
 24 41  1  0  0  0  0
 25 27  1  0  0  0  0
 25 42  1  0  0  0  0
 26 28  1  0  0  0  0
 27 43  1  0  0  0  0
 28 44  1  0  0  0  0
 28 45  1  0  0  0  0
 28 46  1  0  0  0  0
 29 47  1  0  0  0  0
 29 48  1  0  0  0  0
 29 49  1  0  0  0  0
 30 50  1  0  0  0  0
 30 51  1  0  0  0  0
 30 52  1  0  0  0  0
 31 53  1  0  0  0  0
 31 54  1  0  0  0  0
 31 55  1  0  0  0  0
M  END
> <PUBCHEM_COMPOUND_CID>
56946728

> <PUBCHEM_CONFORMER_RMSD>
1

> <PUBCHEM_CONFORMER_DIVERSEORDER>
1
8
3
7
6
9
5
2
4

> <PUBCHEM_MMFF94_PARTIAL_CHARGES>
41
1 -0.36
11 -0.15
12 -0.15
13 -0.15
15 0.09
16 0.54
17 -0.15
18 -0.15
19 0.08
2 -0.36
20 0.08
21 0.08
22 -0.15
23 -0.15
24 -0.15
25 -0.15
26 0.57
27 -0.15
28 0.06
29 0.28
3 -0.36
30 0.28
31 0.28
32 0.15
33 0.15
34 0.15
35 0.37
36 0.15
37 0.15
38 0.37
39 0.15
4 -0.57
40 0.15
41 0.15
42 0.15
43 0.15
5 -0.57
6 -0.55
7 -0.55
8 0.12
9 0.12

> <PUBCHEM_EFFECTIVE_ROTOR_COUNT>
9

> <PUBCHEM_PHARMACOPHORE_FEATURES>
10
1 1 acceptor
1 2 acceptor
1 3 acceptor
1 4 acceptor
1 5 acceptor
1 6 donor
1 7 donor
6 14 22 23 24 25 27 rings
6 15 17 18 19 20 21 rings
6 8 9 10 11 12 13 rings

> <PUBCHEM_HEAVY_ATOM_COUNT>
31

> <PUBCHEM_ATOM_DEF_STEREO_COUNT>
0

> <PUBCHEM_ATOM_UDEF_STEREO_COUNT>
0

> <PUBCHEM_BOND_DEF_STEREO_COUNT>
0

> <PUBCHEM_BOND_UDEF_STEREO_COUNT>
0

> <PUBCHEM_ISOTOPIC_ATOM_COUNT>
0

> <PUBCHEM_COMPONENT_COUNT>
1

> <PUBCHEM_CACTVS_TAUTO_COUNT>
6

> <PUBCHEM_CONFORMER_ID>
0364F02800000001

> <PUBCHEM_MMFF94_ENERGY>
137.8163

> <PUBCHEM_FEATURE_SELFOVERLAP>
50.76

> <PUBCHEM_SHAPE_FINGERPRINT>
10 15 17967531302626526128
10050765 1 18120376711594588077
10835480 77 18342173431634593664
10906281 52 18130804372698673965
12236239 1 17846498111324730965
12838862 33 18335967706001607248
12977781 61 17559700454426927239
13533116 47 17988644060467489280
14251764 18 17846498136561973121
14725015 67 18122345684023708510
14866123 147 18336830909310285059
15064986 266 18337115690736313662
15183329 4 18343021073341885553
15849732 13 17603586331150868469
15927050 60 18410007745997925587
16994733 274 16630251308094088515
19141452 34 18335422408347993828
19301679 30 17612323243919692027
19315958 150 18411986870689412100
20157964 124 18272652333659506244
21521721 280 18412268307575614531
21781051 124 17824006539952826563
21859007 373 17750500815517351773
22122407 14 16558756757866158776
23516275 137 17131011809848980383
23559900 14 18269267027130560168
23569917 315 18410016568124463183
249057 3 18335421275041149524
255183 451 17630058049238352854
3178227 256 18334590023123997905
335352 9 18409167718390644101
3383291 50 18410013217500885315
340366 18 17968384536702900669
3633792 109 18341047415979801321
4073 2 18337955696223927114
4093350 32 17131273458802490646
4403749 210 17911793880613507896
4408954 64 15434297323700499347
5104073 3 18341046424100442704
57527293 21 17750500945262636004
59755656 215 18187367567758666703
59755656 520 18335412491970250943
6669772 16 18411419475909479287

> <PUBCHEM_SHAPE_MULTIPOLES>
598.66
21.67
3.75
1
6
4.49
-0.03
-10.08
1.4
-2.26
0.31
0.46
0.15
1.03

> <PUBCHEM_SHAPE_SELFOVERLAP>
1290.828

> <PUBCHEM_SHAPE_VOLUME>
329.5

> <PUBCHEM_COORDINATE_TYPE>
2
5
10

$$$$