130026
  -OEChem-03242010103D

 72 73  0     1  0  0  0  0  0999 V2000
    4.3693    2.6734    2.0144 O   0  0  0  0  0  0  0  0  0  0  0  0
    5.3120    1.4634   -2.5227 O   0  0  0  0  0  0  0  0  0  0  0  0
    5.3245    3.3507   -0.4956 O   0  0  0  0  0  0  0  0  0  0  0  0
   -8.2348   -1.4364   -0.5113 O   0  0  0  0  0  0  0  0  0  0  0  0
   -8.9811    0.8896    0.8153 O   0  0  0  0  0  0  0  0  0  0  0  0
   -1.4253   -0.4494   -0.6119 N   0  0  0  0  0  0  0  0  0  0  0  0
    3.4595   -3.4883   -1.6292 N   0  0  0  0  0  0  0  0  0  0  0  0
    3.3433   -1.9019    0.4935 C   0  0  1  0  0  0  0  0  0  0  0  0
    4.1984   -2.5665    1.6546 C   0  0  0  0  0  0  0  0  0  0  0  0
    1.8330   -1.8235    0.9192 C   0  0  0  0  0  0  0  0  0  0  0  0
    3.8807   -0.4762    0.2249 C   0  0  0  0  0  0  0  0  0  0  0  0
    0.8916   -1.1765   -0.1182 C   0  0  0  0  0  0  0  0  0  0  0  0
    3.6575   -3.9393    2.0975 C   0  0  0  0  0  0  0  0  0  0  0  0
    5.6954   -2.7156    1.3316 C   0  0  0  0  0  0  0  0  0  0  0  0
   -0.5484   -1.0471    0.3874 C   0  0  0  0  0  0  0  0  0  0  0  0
    3.4107   -2.7864   -0.7057 C   0  0  0  0  0  0  0  0  0  0  0  0
    4.3613   -0.1390   -1.0403 C   0  0  0  0  0  0  0  0  0  0  0  0
    3.8852    0.4716    1.2483 C   0  0  0  0  0  0  0  0  0  0  0  0
    4.3702    1.7568    1.0063 C   0  0  0  0  0  0  0  0  0  0  0  0
    4.8464    1.1463   -1.2823 C   0  0  0  0  0  0  0  0  0  0  0  0
    4.8506    2.0942   -0.2590 C   0  0  0  0  0  0  0  0  0  0  0  0
   -2.7848   -0.3279   -0.1043 C   0  0  0  0  0  0  0  0  0  0  0  0
   -3.7045    0.3070   -1.1478 C   0  0  0  0  0  0  0  0  0  0  0  0
   -5.1113    0.4591   -0.6263 C   0  0  0  0  0  0  0  0  0  0  0  0
   -6.0379   -0.5674   -0.8094 C   0  0  0  0  0  0  0  0  0  0  0  0
    3.8610    2.2473    3.2770 C   0  0  0  0  0  0  0  0  0  0  0  0
    5.2724    0.4367   -3.5118 C   0  0  0  0  0  0  0  0  0  0  0  0
   -5.4859    1.6261    0.0394 C   0  0  0  0  0  0  0  0  0  0  0  0
    4.3847    4.3215   -0.9502 C   0  0  0  0  0  0  0  0  0  0  0  0
   -7.3390   -0.4269   -0.3266 C   0  0  0  0  0  0  0  0  0  0  0  0
   -6.7870    1.7668    0.5219 C   0  0  0  0  0  0  0  0  0  0  0  0
   -7.7136    0.7403    0.3391 C   0  0  0  0  0  0  0  0  0  0  0  0
   -7.7719   -2.5955   -1.2014 C   0  0  0  0  0  0  0  0  0  0  0  0
   -9.2825    2.1130    1.4837 C   0  0  0  0  0  0  0  0  0  0  0  0
    4.1381   -1.9276    2.5455 H   0  0  0  0  0  0  0  0  0  0  0  0
    1.7371   -1.2834    1.8694 H   0  0  0  0  0  0  0  0  0  0  0  0
    1.4423   -2.8327    1.1007 H   0  0  0  0  0  0  0  0  0  0  0  0
    0.8947   -1.7708   -1.0398 H   0  0  0  0  0  0  0  0  0  0  0  0
    1.2553   -0.1767   -0.3825 H   0  0  0  0  0  0  0  0  0  0  0  0
    4.3049   -4.3736    2.8682 H   0  0  0  0  0  0  0  0  0  0  0  0
    3.6134   -4.6528    1.2692 H   0  0  0  0  0  0  0  0  0  0  0  0
    2.6624   -3.8580    2.5435 H   0  0  0  0  0  0  0  0  0  0  0  0
    5.8621   -3.3952    0.4897 H   0  0  0  0  0  0  0  0  0  0  0  0
    6.2360   -3.1205    2.1945 H   0  0  0  0  0  0  0  0  0  0  0  0
    6.1545   -1.7526    1.0898 H   0  0  0  0  0  0  0  0  0  0  0  0
   -0.5461   -0.4313    1.2951 H   0  0  0  0  0  0  0  0  0  0  0  0
   -0.9181   -2.0425    0.6630 H   0  0  0  0  0  0  0  0  0  0  0  0
    4.3496   -0.8863   -1.8198 H   0  0  0  0  0  0  0  0  0  0  0  0
    3.4954    0.1692    2.2123 H   0  0  0  0  0  0  0  0  0  0  0  0
   -1.4211   -1.0172   -1.4587 H   0  0  0  0  0  0  0  0  0  0  0  0
   -2.7884    0.2893    0.8033 H   0  0  0  0  0  0  0  0  0  0  0  0
   -3.1739   -1.3163    0.1725 H   0  0  0  0  0  0  0  0  0  0  0  0
   -3.7174   -0.2970   -2.0647 H   0  0  0  0  0  0  0  0  0  0  0  0
   -3.3194    1.2914   -1.4452 H   0  0  0  0  0  0  0  0  0  0  0  0
   -5.6883   -1.4515   -1.3319 H   0  0  0  0  0  0  0  0  0  0  0  0
   -4.7715    2.4314    0.1892 H   0  0  0  0  0  0  0  0  0  0  0  0
    3.9379    3.1008    3.9588 H   0  0  0  0  0  0  0  0  0  0  0  0
    4.4682    1.4433    3.7070 H   0  0  0  0  0  0  0  0  0  0  0  0
    2.7993    1.9846    3.2175 H   0  0  0  0  0  0  0  0  0  0  0  0
    4.2451    0.1292   -3.7356 H   0  0  0  0  0  0  0  0  0  0  0  0
    5.9163   -0.4084   -3.2449 H   0  0  0  0  0  0  0  0  0  0  0  0
    5.6806    0.8643   -4.4337 H   0  0  0  0  0  0  0  0  0  0  0  0
    3.9482    4.0171   -1.9067 H   0  0  0  0  0  0  0  0  0  0  0  0
    3.5943    4.4703   -0.2076 H   0  0  0  0  0  0  0  0  0  0  0  0
    4.9123    5.2685   -1.0929 H   0  0  0  0  0  0  0  0  0  0  0  0
   -7.0066    2.6999    1.0291 H   0  0  0  0  0  0  0  0  0  0  0  0
   -8.6136   -3.2937   -1.2584 H   0  0  0  0  0  0  0  0  0  0  0  0
   -6.9752   -3.1040   -0.6477 H   0  0  0  0  0  0  0  0  0  0  0  0
   -7.4822   -2.3634   -2.2320 H   0  0  0  0  0  0  0  0  0  0  0  0
  -10.3309    2.0602    1.7950 H   0  0  0  0  0  0  0  0  0  0  0  0
   -9.1937    2.9729    0.8112 H   0  0  0  0  0  0  0  0  0  0  0  0
   -8.6862    2.2326    2.3948 H   0  0  0  0  0  0  0  0  0  0  0  0
  1 19  1  0  0  0  0
  1 26  1  0  0  0  0
  2 20  1  0  0  0  0
  2 27  1  0  0  0  0
  3 21  1  0  0  0  0
  3 29  1  0  0  0  0
  4 30  1  0  0  0  0
  4 33  1  0  0  0  0
  5 32  1  0  0  0  0
  5 34  1  0  0  0  0
  6 15  1  0  0  0  0
  6 22  1  0  0  0  0
  6 50  1  0  0  0  0
  7 16  3  0  0  0  0
  8  9  1  0  0  0  0
  8 10  1  0  0  0  0
  8 11  1  0  0  0  0
  8 16  1  0  0  0  0
  9 13  1  0  0  0  0
  9 14  1  0  0  0  0
  9 35  1  0  0  0  0
 10 12  1  0  0  0  0
 10 36  1  0  0  0  0
 10 37  1  0  0  0  0
 11 17  2  0  0  0  0
 11 18  1  0  0  0  0
 12 15  1  0  0  0  0
 12 38  1  0  0  0  0
 12 39  1  0  0  0  0
 13 40  1  0  0  0  0
 13 41  1  0  0  0  0
 13 42  1  0  0  0  0
 14 43  1  0  0  0  0
 14 44  1  0  0  0  0
 14 45  1  0  0  0  0
 15 46  1  0  0  0  0
 15 47  1  0  0  0  0
 17 20  1  0  0  0  0
 17 48  1  0  0  0  0
 18 19  2  0  0  0  0
 18 49  1  0  0  0  0
 19 21  1  0  0  0  0
 20 21  2  0  0  0  0
 22 23  1  0  0  0  0
 22 51  1  0  0  0  0
 22 52  1  0  0  0  0
 23 24  1  0  0  0  0
 23 53  1  0  0  0  0
 23 54  1  0  0  0  0
 24 25  2  0  0  0  0
 24 28  1  0  0  0  0
 25 30  1  0  0  0  0
 25 55  1  0  0  0  0
 26 57  1  0  0  0  0
 26 58  1  0  0  0  0
 26 59  1  0  0  0  0
 27 60  1  0  0  0  0
 27 61  1  0  0  0  0
 27 62  1  0  0  0  0
 28 31  2  0  0  0  0
 28 56  1  0  0  0  0
 29 63  1  0  0  0  0
 29 64  1  0  0  0  0
 29 65  1  0  0  0  0
 30 32  2  0  0  0  0
 31 32  1  0  0  0  0
 31 66  1  0  0  0  0
 33 67  1  0  0  0  0
 33 68  1  0  0  0  0
 33 69  1  0  0  0  0
 34 70  1  0  0  0  0
 34 71  1  0  0  0  0
 34 72  1  0  0  0  0
M  END
> <PUBCHEM_COMPOUND_CID>
130026

> <PUBCHEM_CONFORMER_RMSD>
1.2

> <PUBCHEM_CONFORMER_DIVERSEORDER>
12
34
56
58
31
54
48
49
33
59
44
55
41
52
24
40
30
4
26
15
25
43
57
27
29
6
42
35
32
51
18
14
36
28
10
5
21
46
16
1
47
45
53
22
39
19
3
17
9
38
23
13
8
50
11
37
20
2
7

> <PUBCHEM_MMFF94_PARTIAL_CHARGES>
35
1 -0.36
11 -0.14
15 0.27
16 0.36
17 -0.15
18 -0.15
19 0.08
2 -0.36
20 0.08
21 0.08
22 0.27
23 0.14
24 -0.14
25 -0.15
26 0.28
27 0.28
28 -0.15
29 0.28
3 -0.36
30 0.08
31 -0.15
32 0.08
33 0.28
34 0.28
4 -0.36
48 0.15
49 0.15
5 -0.36
50 0.36
55 0.15
56 0.15
6 -0.9
66 0.15
7 -0.56
8 0.34

> <PUBCHEM_EFFECTIVE_ROTOR_COUNT>
14

> <PUBCHEM_PHARMACOPHORE_FEATURES>
12
1 1 acceptor
1 2 acceptor
1 3 acceptor
1 4 acceptor
1 5 acceptor
1 6 cation
1 6 donor
1 7 acceptor
3 9 13 14 hydrophobe
4 8 9 10 12 hydrophobe
6 11 17 18 19 20 21 rings
6 24 25 28 30 31 32 rings

> <PUBCHEM_HEAVY_ATOM_COUNT>
34

> <PUBCHEM_ATOM_DEF_STEREO_COUNT>
0

> <PUBCHEM_ATOM_UDEF_STEREO_COUNT>
1

> <PUBCHEM_BOND_DEF_STEREO_COUNT>
0

> <PUBCHEM_BOND_UDEF_STEREO_COUNT>
0

> <PUBCHEM_ISOTOPIC_ATOM_COUNT>
0

> <PUBCHEM_COMPONENT_COUNT>
1

> <PUBCHEM_CACTVS_TAUTO_COUNT>
1

> <PUBCHEM_CONFORMER_ID>
0001FBEA0000000C

> <PUBCHEM_MMFF94_ENERGY>
131.3647

> <PUBCHEM_FEATURE_SELFOVERLAP>
60.932

> <PUBCHEM_SHAPE_FINGERPRINT>
11719270 70 12685088173204388305
11991303 11 15985096453843120357
1200032 147 17458633375987962396
12047536 79 14273728581739973198
13533116 47 18186801340038349150
14537116 161 17489591160285545225
15183329 4 16056880234951743985
15554971 5 18271798009526095543
1577012 14 18412545401901805173
22149856 69 18113620050213830213
23081809 10 18410569575075009423
23522609 53 18337972099347861989
335507 130 18131343120933726623
3663271 9 18413385437375626819
394071 54 18040718099274475749
4073 2 18188211009120591987
44317340 157 18261103033530455119
4625314 4 18337950096378019935
4760202 70 18265608974511270319
5109719 28 18264495168515213305
513532 50 18060702801789193284
5951187 136 17560511924183298048
68570916 9 18411975867653242703
9831232 110 18058171614026668223
9849439 229 18191860344137185600
9962374 69 18114166506865718050

> <PUBCHEM_SHAPE_MULTIPOLES>
660.4
27.37
4.47
2.38
76.95
0.06
0.19
7.18
-0.53
-8.66
-0.94
-5.01
0.67
-3.87

> <PUBCHEM_SHAPE_SELFOVERLAP>
1357.312

> <PUBCHEM_SHAPE_VOLUME>
380.5

> <PUBCHEM_COORDINATE_TYPE>
2
5
10

$$$$