97
 OpenBabel03292021553D

128136  0  0  1  0  0  0  0  0999 V2000
  -13.1516  -21.6956   -8.1881 C   0  0  0  0  0  0  0  0  0  0  0  0
  -14.2777  -21.5329   -8.8967 C   0  0  0  0  0  0  0  0  0  0  0  0
  -14.8405  -20.2792   -9.5547 C   0  0  1  0  0  0  0  0  0  0  0  0
  -14.0328  -18.9533   -9.4250 C   0  0  0  0  0  0  0  0  0  0  0  0
  -13.8460  -18.2549  -10.7359 N   0  0  3  0  0  0  0  0  0  0  0  0
  -15.1756  -18.0445  -11.3412 C   0  0  0  0  0  0  0  0  0  0  0  0
  -15.8690  -19.3695  -11.6771 C   0  0  0  0  0  0  0  0  0  0  0  0
  -15.0837  -20.5319  -11.0613 C   0  0  1  0  0  0  0  0  0  0  0  0
  -13.7370  -20.5268  -11.7720 C   0  0  0  0  0  0  0  0  0  0  0  0
  -13.0173  -19.1457  -11.6071 C   0  0  1  0  0  0  0  0  0  0  0  0
  -12.4619  -18.5568  -12.9993 C   0  0  2  0  0  0  0  0  0  0  0  0
  -11.6521  -17.3988  -12.6692 O   0  0  0  0  0  0  0  0  0  0  0  0
  -12.1882  -16.1578  -12.8471 C   0  0  0  0  0  0  0  0  0  0  0  0
  -13.2829  -15.9446  -13.3596 O   0  0  0  0  0  0  0  0  0  0  0  0
  -11.2615  -15.0316  -12.3680 C   0  0  0  0  0  0  0  0  0  0  0  0
  -10.6742  -14.2563  -13.5529 C   0  0  0  0  0  0  0  0  0  0  0  0
   -9.8710  -12.9837  -13.2529 C   0  0  0  0  0  0  0  0  0  0  0  0
   -8.6343  -13.0824  -12.3528 C   0  0  0  0  0  0  0  0  0  0  0  0
   -7.5591  -14.1121  -12.7131 C   0  0  0  0  0  0  0  0  0  0  0  0
   -6.9034  -13.9399  -14.0875 C   0  0  0  0  0  0  0  0  0  0  0  0
   -5.8176  -14.8677  -14.3687 N   0  0  0  0  0  0  0  0  0  0  0  0
   -5.3737  -15.9414  -13.6509 C   0  0  0  0  0  0  0  0  0  0  0  0
   -4.3575  -16.4754  -14.4137 C   0  0  0  0  0  0  0  0  0  0  0  0
   -3.5051  -17.6868  -14.2324 C   0  0  0  0  0  0  0  0  0  0  0  0
   -3.6367  -18.4114  -12.9000 C   0  0  0  0  0  0  0  0  0  0  0  0
   -4.9900  -19.0404  -12.7195 C   0  0  0  0  0  0  0  0  0  0  0  0
   -5.7116  -18.7751  -11.7712 O   0  0  0  0  0  0  0  0  0  0  0  0
   -5.2576  -19.9204  -13.7233 O   0  0  0  0  0  0  0  0  0  0  0  0
   -6.6224  -20.4139  -13.8506 C   0  0  2  0  0  0  0  0  0  0  0  0
   -7.4726  -19.2078  -14.2870 C   0  0  0  0  0  0  0  0  0  0  0  0
   -8.3124  -18.6560  -13.3265 C   0  0  0  0  0  0  0  0  0  0  0  0
   -8.9445  -17.4803  -13.5920 C   0  0  0  0  0  0  0  0  0  0  0  0
   -8.9558  -16.8670  -14.7794 N   0  0  0  0  0  0  0  0  0  0  0  0
   -8.1961  -17.3785  -15.7336 C   0  0  0  0  0  0  0  0  0  0  0  0
   -8.2460  -16.6699  -16.9267 C   0  0  0  0  0  0  0  0  0  0  0  0
   -7.3440  -16.9202  -17.9411 C   0  0  0  0  0  0  0  0  0  0  0  0
   -6.3602  -17.8775  -17.7368 C   0  0  0  0  0  0  0  0  0  0  0  0
   -5.2894  -18.0130  -18.5852 O   0  0  0  0  0  0  0  0  0  0  0  0
   -4.8692  -16.7672  -19.1654 C   0  0  0  0  0  0  0  0  0  0  0  0
   -6.4145  -18.7197  -16.6039 C   0  0  0  0  0  0  0  0  0  0  0  0
   -7.3464  -18.4963  -15.5509 C   0  0  0  0  0  0  0  0  0  0  0  0
   -7.0414  -21.2554  -12.5337 C   0  0  2  0  0  0  0  0  0  0  0  0
   -5.9377  -22.2056  -11.9852 C   0  0  0  0  0  0  0  0  0  0  0  0
   -6.5004  -23.6275  -11.7285 C   0  0  2  0  0  0  0  0  0  0  0  0
   -7.0439  -24.0936  -13.0868 C   0  0  0  0  0  0  0  0  0  0  0  0
   -8.2194  -23.1905  -13.4607 C   0  0  0  0  0  0  0  0  0  0  0  0
   -8.3291  -22.0045  -12.5730 N   0  0  3  0  0  0  0  0  0  0  0  0
   -8.6418  -22.4569  -11.1862 C   0  0  0  0  0  0  0  0  0  0  0  0
   -7.7208  -23.6200  -10.7654 C   0  0  2  0  0  0  0  0  0  0  0  0
   -7.3664  -23.5895   -9.3016 C   0  0  0  0  0  0  0  0  0  0  0  0
   -7.7518  -24.5404   -8.4351 C   0  0  0  0  0  0  0  0  0  0  0  0
   -4.1924  -15.6912  -15.5276 N   0  0  0  0  0  0  0  0  0  0  0  0
   -5.0818  -14.7078  -15.4859 N   0  0  0  0  0  0  0  0  0  0  0  0
  -11.6485  -19.6311  -13.7776 C   0  0  0  0  0  0  0  0  0  0  0  0
  -11.2404  -20.7628  -13.0647 C   0  0  0  0  0  0  0  0  0  0  0  0
  -11.0464  -21.9471  -13.7274 C   0  0  0  0  0  0  0  0  0  0  0  0
  -10.8236  -22.0242  -15.0333 N   0  0  0  0  0  0  0  0  0  0  0  0
  -10.8637  -20.8809  -15.7041 C   0  0  0  0  0  0  0  0  0  0  0  0
  -10.3505  -20.9663  -16.9748 C   0  0  0  0  0  0  0  0  0  0  0  0
  -10.4137  -19.8924  -17.8408 C   0  0  0  0  0  0  0  0  0  0  0  0
  -11.0774  -18.7323  -17.4515 C   0  0  0  0  0  0  0  0  0  0  0  0
  -11.2911  -17.6672  -18.2897 O   0  0  0  0  0  0  0  0  0  0  0  0
  -10.9664  -17.8967  -19.6628 C   0  0  0  0  0  0  0  0  0  0  0  0
  -11.5434  -18.6030  -16.1239 C   0  0  0  0  0  0  0  0  0  0  0  0
  -11.3816  -19.6575  -15.1853 C   0  0  0  0  0  0  0  0  0  0  0  0
  -12.8961  -22.6743   -7.7889 H   0  0  0  0  0  0  0  0  0  0  0  0
  -12.4537  -20.8945   -7.9752 H   0  0  0  0  0  0  0  0  0  0  0  0
  -14.8943  -22.4238   -9.0345 H   0  0  0  0  0  0  0  0  0  0  0  0
  -15.8216  -20.1159   -9.0893 H   0  0  0  0  0  0  0  0  0  0  0  0
  -13.0485  -19.0998   -8.9664 H   0  0  0  0  0  0  0  0  0  0  0  0
  -14.5620  -18.2825   -8.7367 H   0  0  0  0  0  0  0  0  0  0  0  0
  -15.0919  -17.4285  -12.2409 H   0  0  0  0  0  0  0  0  0  0  0  0
  -15.8008  -17.4679  -10.6490 H   0  0  0  0  0  0  0  0  0  0  0  0
  -15.9085  -19.4943  -12.7676 H   0  0  0  0  0  0  0  0  0  0  0  0
  -16.9004  -19.3686  -11.3131 H   0  0  0  0  0  0  0  0  0  0  0  0
  -15.5999  -21.4822  -11.2399 H   0  0  0  0  0  0  0  0  0  0  0  0
  -13.9038  -20.7695  -12.8274 H   0  0  0  0  0  0  0  0  0  0  0  0
  -13.1240  -21.3293  -11.3431 H   0  0  0  0  0  0  0  0  0  0  0  0
  -12.1097  -19.2977  -11.0013 H   0  0  0  0  0  0  0  0  0  0  0  0
  -13.3169  -18.2843  -13.6285 H   0  0  0  0  0  0  0  0  0  0  0  0
  -10.4785  -15.4325  -11.7173 H   0  0  0  0  0  0  0  0  0  0  0  0
  -11.8593  -14.3637  -11.7353 H   0  0  0  0  0  0  0  0  0  0  0  0
  -11.4995  -13.9693  -14.2173 H   0  0  0  0  0  0  0  0  0  0  0  0
  -10.0510  -14.9132  -14.1528 H   0  0  0  0  0  0  0  0  0  0  0  0
  -10.5487  -12.2423  -12.8105 H   0  0  0  0  0  0  0  0  0  0  0  0
   -9.5561  -12.5576  -14.2148 H   0  0  0  0  0  0  0  0  0  0  0  0
   -8.9644  -13.2821  -11.3266 H   0  0  0  0  0  0  0  0  0  0  0  0
   -8.1605  -12.0915  -12.3264 H   0  0  0  0  0  0  0  0  0  0  0  0
   -7.9813  -15.1136  -12.6203 H   0  0  0  0  0  0  0  0  0  0  0  0
   -6.7751  -14.0448  -11.9463 H   0  0  0  0  0  0  0  0  0  0  0  0
   -6.4738  -12.9340  -14.1716 H   0  0  0  0  0  0  0  0  0  0  0  0
   -7.6360  -14.0689  -14.8910 H   0  0  0  0  0  0  0  0  0  0  0  0
   -5.8232  -16.2427  -12.7172 H   0  0  0  0  0  0  0  0  0  0  0  0
   -2.4572  -17.3796  -14.3391 H   0  0  0  0  0  0  0  0  0  0  0  0
   -3.7076  -18.3781  -15.0590 H   0  0  0  0  0  0  0  0  0  0  0  0
   -3.4731  -17.7205  -12.0660 H   0  0  0  0  0  0  0  0  0  0  0  0
   -2.8966  -19.2115  -12.8123 H   0  0  0  0  0  0  0  0  0  0  0  0
   -6.6125  -21.1178  -14.6908 H   0  0  0  0  0  0  0  0  0  0  0  0
   -8.4363  -19.0638  -12.3315 H   0  0  0  0  0  0  0  0  0  0  0  0
   -9.4611  -16.9750  -12.7947 H   0  0  0  0  0  0  0  0  0  0  0  0
   -8.9731  -15.8739  -17.0433 H   0  0  0  0  0  0  0  0  0  0  0  0
   -7.3895  -16.3108  -18.8397 H   0  0  0  0  0  0  0  0  0  0  0  0
   -3.8120  -16.8482  -19.4312 H   0  0  0  0  0  0  0  0  0  0  0  0
   -4.9650  -15.9170  -18.4759 H   0  0  0  0  0  0  0  0  0  0  0  0
   -5.4351  -16.5709  -20.0836 H   0  0  0  0  0  0  0  0  0  0  0  0
   -5.6574  -19.4943  -16.5009 H   0  0  0  0  0  0  0  0  0  0  0  0
   -7.1713  -20.5158  -11.7394 H   0  0  0  0  0  0  0  0  0  0  0  0
   -5.5390  -21.7982  -11.0491 H   0  0  0  0  0  0  0  0  0  0  0  0
   -5.1068  -22.2763  -12.6948 H   0  0  0  0  0  0  0  0  0  0  0  0
   -5.7145  -24.3014  -11.3767 H   0  0  0  0  0  0  0  0  0  0  0  0
   -7.3799  -25.1366  -13.0281 H   0  0  0  0  0  0  0  0  0  0  0  0
   -6.2665  -24.0433  -13.8555 H   0  0  0  0  0  0  0  0  0  0  0  0
   -9.1304  -23.7968  -13.3910 H   0  0  0  0  0  0  0  0  0  0  0  0
   -8.1511  -22.8813  -14.5086 H   0  0  0  0  0  0  0  0  0  0  0  0
   -9.6875  -22.7875  -11.1315 H   0  0  0  0  0  0  0  0  0  0  0  0
   -8.5844  -21.6090  -10.4890 H   0  0  0  0  0  0  0  0  0  0  0  0
   -8.2830  -24.5499  -10.9410 H   0  0  0  0  0  0  0  0  0  0  0  0
   -6.7693  -22.7564   -8.9391 H   0  0  0  0  0  0  0  0  0  0  0  0
   -8.3490  -25.3879   -8.7469 H   0  0  0  0  0  0  0  0  0  0  0  0
   -7.4788  -24.4885   -7.3860 H   0  0  0  0  0  0  0  0  0  0  0  0
  -11.1866  -20.8063  -11.9857 H   0  0  0  0  0  0  0  0  0  0  0  0
  -11.0103  -22.8808  -13.1803 H   0  0  0  0  0  0  0  0  0  0  0  0
   -9.8745  -21.8900  -17.2945 H   0  0  0  0  0  0  0  0  0  0  0  0
   -9.9463  -20.0097  -18.8118 H   0  0  0  0  0  0  0  0  0  0  0  0
  -11.3535  -17.0593  -20.2509 H   0  0  0  0  0  0  0  0  0  0  0  0
  -11.4345  -18.8087  -20.0492 H   0  0  0  0  0  0  0  0  0  0  0  0
   -9.8794  -17.9287  -19.8023 H   0  0  0  0  0  0  0  0  0  0  0  0
  -11.9793  -17.6585  -15.8139 H   0  0  0  0  0  0  0  0  0  0  0  0
  1  2  2  0  0  0  0
  1 66  1  0  0  0  0
  1 67  1  0  0  0  0
  2 68  1  0  0  0  0
  3  4  1  0  0  0  0
  3  8  1  0  0  0  0
  3  2  1  0  0  0  0
  3 69  1  1  0  0  0
  4  5  1  0  0  0  0
  4 70  1  0  0  0  0
  4 71  1  0  0  0  0
  5  6  1  0  0  0  0
  5 10  1  0  0  0  0
  6  7  1  0  0  0  0
  6 72  1  0  0  0  0
  6 73  1  0  0  0  0
  7  8  1  0  0  0  0
  7 74  1  0  0  0  0
  7 75  1  0  0  0  0
  8  9  1  0  0  0  0
  8 76  1  6  0  0  0
  9 10  1  0  0  0  0
  9 77  1  0  0  0  0
  9 78  1  0  0  0  0
 10 11  1  0  0  0  0
 10 79  1  1  0  0  0
 11 54  1  0  0  0  0
 11 12  1  0  0  0  0
 11 80  1  1  0  0  0
 12 13  1  0  0  0  0
 13 14  2  0  0  0  0
 13 15  1  0  0  0  0
 15 16  1  0  0  0  0
 15 81  1  0  0  0  0
 15 82  1  0  0  0  0
 16 17  1  0  0  0  0
 16 83  1  0  0  0  0
 16 84  1  0  0  0  0
 17 18  1  0  0  0  0
 17 85  1  0  0  0  0
 17 86  1  0  0  0  0
 18 19  1  0  0  0  0
 18 87  1  0  0  0  0
 18 88  1  0  0  0  0
 19 20  1  0  0  0  0
 19 89  1  0  0  0  0
 19 90  1  0  0  0  0
 20 21  1  0  0  0  0
 20 91  1  0  0  0  0
 20 92  1  0  0  0  0
 21 22  1  0  0  0  0
 21 53  1  0  0  0  0
 22 23  2  0  0  0  0
 22 93  1  0  0  0  0
 23 24  1  0  0  0  0
 23 52  1  0  0  0  0
 24 25  1  0  0  0  0
 24 94  1  0  0  0  0
 24 95  1  0  0  0  0
 25 26  1  0  0  0  0
 25 96  1  0  0  0  0
 25 97  1  0  0  0  0
 26 27  2  0  0  0  0
 26 28  1  0  0  0  0
 29 42  1  0  0  0  0
 29 30  1  0  0  0  0
 29 28  1  0  0  0  0
 29 98  1  6  0  0  0
 30 31  1  0  0  0  0
 30 41  2  0  0  0  0
 31 32  2  0  0  0  0
 31 99  1  0  0  0  0
 32 33  1  0  0  0  0
 32100  1  0  0  0  0
 33 34  2  0  0  0  0
 34 35  1  0  0  0  0
 34 41  1  0  0  0  0
 35 36  2  0  0  0  0
 35101  1  0  0  0  0
 36 37  1  0  0  0  0
 36102  1  0  0  0  0
 37 38  1  0  0  0  0
 37 40  2  0  0  0  0
 38 39  1  0  0  0  0
 39103  1  0  0  0  0
 39104  1  0  0  0  0
 39105  1  0  0  0  0
 40 41  1  0  0  0  0
 40106  1  0  0  0  0
 42 43  1  0  0  0  0
 42 47  1  0  0  0  0
 42107  1  1  0  0  0
 43 44  1  0  0  0  0
 43108  1  0  0  0  0
 43109  1  0  0  0  0
 44 45  1  0  0  0  0
 44 49  1  0  0  0  0
 44110  1  1  0  0  0
 45 46  1  0  0  0  0
 45111  1  0  0  0  0
 45112  1  0  0  0  0
 46 47  1  0  0  0  0
 46113  1  0  0  0  0
 46114  1  0  0  0  0
 47 48  1  0  0  0  0
 48 49  1  0  0  0  0
 48115  1  0  0  0  0
 48116  1  0  0  0  0
 49 50  1  0  0  0  0
 49117  1  6  0  0  0
 50 51  2  0  0  0  0
 50118  1  0  0  0  0
 51119  1  0  0  0  0
 51120  1  0  0  0  0
 52 53  2  0  0  0  0
 54 55  1  0  0  0  0
 54 65  2  0  0  0  0
 55 56  2  0  0  0  0
 55121  1  0  0  0  0
 56 57  1  0  0  0  0
 56122  1  0  0  0  0
 57 58  2  0  0  0  0
 58 59  1  0  0  0  0
 58 65  1  0  0  0  0
 59 60  2  0  0  0  0
 59123  1  0  0  0  0
 60 61  1  0  0  0  0
 60124  1  0  0  0  0
 61 62  1  0  0  0  0
 61 64  2  0  0  0  0
 62 63  1  0  0  0  0
 63125  1  0  0  0  0
 63126  1  0  0  0  0
 63127  1  0  0  0  0
 64 65  1  0  0  0  0
 64128  1  0  0  0  0
M  END
>  <Energy>
238.801

$$$$