44565440
  -OEChem-03242010103D

 63 66  0     1  0  0  0  0  0999 V2000
    8.7654    2.3695    0.4624 O   0  0  0  0  0  0  0  0  0  0  0  0
    9.8602   -0.1290   -0.0625 O   0  0  0  0  0  0  0  0  0  0  0  0
   -7.5686    0.6400   -0.5175 O   0  0  0  0  0  0  0  0  0  0  0  0
   -4.9852    1.2487   -0.8790 O   0  0  0  0  0  0  0  0  0  0  0  0
    3.4655   -0.6363   -0.1067 N   0  0  2  0  0  0  0  0  0  0  0  0
   -4.3638   -0.6415    0.3838 N   0  0  0  0  0  0  0  0  0  0  0  0
    3.9771   -1.9194    0.3903 C   0  0  0  0  0  0  0  0  0  0  0  0
    4.2428    0.4776    0.4650 C   0  0  0  0  0  0  0  0  0  0  0  0
    5.3984   -2.1511   -0.1329 C   0  0  0  0  0  0  0  0  0  0  0  0
    5.7359    0.3149    0.2938 C   0  0  0  0  0  0  0  0  0  0  0  0
    6.2926   -0.9528    0.0519 C   0  0  0  0  0  0  0  0  0  0  0  0
    2.0468   -0.4842    0.2141 C   0  0  0  0  0  0  0  0  0  0  0  0
    1.1759   -1.2668   -0.7691 C   0  0  0  0  0  0  0  0  0  0  0  0
    6.5808    1.4232    0.4409 C   0  0  0  0  0  0  0  0  0  0  0  0
    7.6811   -1.0873   -0.0761 C   0  0  0  0  0  0  0  0  0  0  0  0
    7.9629    1.2776    0.3214 C   0  0  0  0  0  0  0  0  0  0  0  0
    8.5121    0.0242    0.0609 C   0  0  0  0  0  0  0  0  0  0  0  0
   -0.2913   -1.1005   -0.4629 C   0  0  0  0  0  0  0  0  0  0  0  0
   -0.9272   -1.9871    0.4062 C   0  0  0  0  0  0  0  0  0  0  0  0
   -1.0127   -0.0608   -1.0495 C   0  0  0  0  0  0  0  0  0  0  0  0
   -2.2846   -1.8343    0.6884 C   0  0  0  0  0  0  0  0  0  0  0  0
   -2.3701    0.0921   -0.7674 C   0  0  0  0  0  0  0  0  0  0  0  0
   -3.0061   -0.7946    0.1016 C   0  0  0  0  0  0  0  0  0  0  0  0
    8.1236    3.6153    0.7278 C   0  0  0  0  0  0  0  0  0  0  0  0
   10.4120    0.0184   -1.3695 C   0  0  0  0  0  0  0  0  0  0  0  0
   -5.2450    0.3321   -0.1053 C   0  0  0  0  0  0  0  0  0  0  0  0
   -6.6464    0.1608    0.4393 C   0  0  0  0  0  0  0  0  0  0  0  0
   -8.9021    0.5749   -0.1899 C   0  0  0  0  0  0  0  0  0  0  0  0
   -9.3644   -0.4336    0.6555 C   0  0  0  0  0  0  0  0  0  0  0  0
   -9.7930    1.5170   -0.7038 C   0  0  0  0  0  0  0  0  0  0  0  0
  -10.7177   -0.4999    0.9872 C   0  0  0  0  0  0  0  0  0  0  0  0
  -11.1463    1.4509   -0.3720 C   0  0  0  0  0  0  0  0  0  0  0  0
  -11.6085    0.4423    0.4734 C   0  0  0  0  0  0  0  0  0  0  0  0
    3.3640   -2.7624    0.0549 H   0  0  0  0  0  0  0  0  0  0  0  0
    3.9740   -1.9393    1.4890 H   0  0  0  0  0  0  0  0  0  0  0  0
    3.9385    1.4056   -0.0353 H   0  0  0  0  0  0  0  0  0  0  0  0
    4.0355    0.5850    1.5383 H   0  0  0  0  0  0  0  0  0  0  0  0
    5.8277   -3.0177    0.3840 H   0  0  0  0  0  0  0  0  0  0  0  0
    5.3598   -2.3853   -1.2045 H   0  0  0  0  0  0  0  0  0  0  0  0
    1.8358   -0.7746    1.2522 H   0  0  0  0  0  0  0  0  0  0  0  0
    1.7617    0.5740    0.1318 H   0  0  0  0  0  0  0  0  0  0  0  0
    1.4119   -2.3372   -0.7574 H   0  0  0  0  0  0  0  0  0  0  0  0
    1.3718   -0.9326   -1.7968 H   0  0  0  0  0  0  0  0  0  0  0  0
    6.0969    2.3718    0.6495 H   0  0  0  0  0  0  0  0  0  0  0  0
    8.1147   -2.0630   -0.2830 H   0  0  0  0  0  0  0  0  0  0  0  0
   -0.3751   -2.7998    0.8708 H   0  0  0  0  0  0  0  0  0  0  0  0
   -0.5267    0.6366   -1.7268 H   0  0  0  0  0  0  0  0  0  0  0  0
   -2.7671   -2.5324    1.3678 H   0  0  0  0  0  0  0  0  0  0  0  0
   -2.8610    0.9201   -1.2593 H   0  0  0  0  0  0  0  0  0  0  0  0
    7.4745    3.9199   -0.1003 H   0  0  0  0  0  0  0  0  0  0  0  0
    7.5977    3.6022    1.6885 H   0  0  0  0  0  0  0  0  0  0  0  0
    8.9111    4.3720    0.8079 H   0  0  0  0  0  0  0  0  0  0  0  0
   10.0006   -0.7368   -2.0466 H   0  0  0  0  0  0  0  0  0  0  0  0
   10.2145    1.0215   -1.7605 H   0  0  0  0  0  0  0  0  0  0  0  0
   11.4940   -0.1241   -1.3026 H   0  0  0  0  0  0  0  0  0  0  0  0
   -4.7470   -1.3261    1.0321 H   0  0  0  0  0  0  0  0  0  0  0  0
   -6.7895   -0.9090    0.6201 H   0  0  0  0  0  0  0  0  0  0  0  0
   -6.7228    0.7227    1.3771 H   0  0  0  0  0  0  0  0  0  0  0  0
   -8.7245   -1.2047    1.0686 H   0  0  0  0  0  0  0  0  0  0  0  0
   -9.4384    2.3047   -1.3629 H   0  0  0  0  0  0  0  0  0  0  0  0
  -11.0794   -1.2877    1.6418 H   0  0  0  0  0  0  0  0  0  0  0  0
  -11.8401    2.1845   -0.7722 H   0  0  0  0  0  0  0  0  0  0  0  0
  -12.6624    0.3901    0.7308 H   0  0  0  0  0  0  0  0  0  0  0  0
  1 16  1  0  0  0  0
  1 24  1  0  0  0  0
  2 17  1  0  0  0  0
  2 25  1  0  0  0  0
  3 27  1  0  0  0  0
  3 28  1  0  0  0  0
  4 26  2  0  0  0  0
  5  7  1  0  0  0  0
  5  8  1  0  0  0  0
  5 12  1  0  0  0  0
  6 23  1  0  0  0  0
  6 26  1  0  0  0  0
  6 56  1  0  0  0  0
  7  9  1  0  0  0  0
  7 34  1  0  0  0  0
  7 35  1  0  0  0  0
  8 10  1  0  0  0  0
  8 36  1  0  0  0  0
  8 37  1  0  0  0  0
  9 11  1  0  0  0  0
  9 38  1  0  0  0  0
  9 39  1  0  0  0  0
 10 11  1  0  0  0  0
 10 14  2  0  0  0  0
 11 15  2  0  0  0  0
 12 13  1  0  0  0  0
 12 40  1  0  0  0  0
 12 41  1  0  0  0  0
 13 18  1  0  0  0  0
 13 42  1  0  0  0  0
 13 43  1  0  0  0  0
 14 16  1  0  0  0  0
 14 44  1  0  0  0  0
 15 17  1  0  0  0  0
 15 45  1  0  0  0  0
 16 17  2  0  0  0  0
 18 19  2  0  0  0  0
 18 20  1  0  0  0  0
 19 21  1  0  0  0  0
 19 46  1  0  0  0  0
 20 22  2  0  0  0  0
 20 47  1  0  0  0  0
 21 23  2  0  0  0  0
 21 48  1  0  0  0  0
 22 23  1  0  0  0  0
 22 49  1  0  0  0  0
 24 50  1  0  0  0  0
 24 51  1  0  0  0  0
 24 52  1  0  0  0  0
 25 53  1  0  0  0  0
 25 54  1  0  0  0  0
 25 55  1  0  0  0  0
 26 27  1  0  0  0  0
 27 57  1  0  0  0  0
 27 58  1  0  0  0  0
 28 29  2  0  0  0  0
 28 30  1  0  0  0  0
 29 31  1  0  0  0  0
 29 59  1  0  0  0  0
 30 32  2  0  0  0  0
 30 60  1  0  0  0  0
 31 33  2  0  0  0  0
 31 61  1  0  0  0  0
 32 33  1  0  0  0  0
 32 62  1  0  0  0  0
 33 63  1  0  0  0  0
M  END
> <PUBCHEM_COMPOUND_CID>
44565440

> <PUBCHEM_CONFORMER_RMSD>
1

> <PUBCHEM_CONFORMER_DIVERSEORDER>
5
200
86
134
65
91
222
129
137
189
1
13
184
69
90
57
230
144
191
227
176
52
233
98
127
105
181
42
224
44
142
194
237
158
107
109
232
3
141
228
99
37
80
177
93
20
216
245
187
126
217
179
111
40
113
30
95
239
50
208
201
234
148
106
75
236
225
110
183
87
100
47
4
34
130
18
157
199
215
165
2
81
205
73
79
188
235
9
145
174
161
153
101
117
210
180
212
146
102
128
55
17
58
118
206
193
198
170
169
26
85
149
168
150
242
152
159
11
76
226
8
204
160
231
103
213
209
214
147
15
60
64
171
123
112
67
41
82
166
122
114
16
7
163
92
154
156
138
197
220
241
240
246
119
35
244
195
72
135
78
12
59
190
178
132
10
116
125
38
131
218
6
121
164
192
14
175
136
219
238
124
39
223
202
19
84
51
196
243
45
22
167
203
74
143
172
88
28
221
151
96
108
207
21
54
173
155
162
77
27
48
62
229
23
61
49
120
56
31
68
29
104
71
43
46
83
89
32
133
24
53
115
182
25
185
63
94
70
211
36
186
140
97
33
139
66

> <PUBCHEM_MMFF94_PARTIAL_CHARGES>
45
1 -0.36
10 -0.14
11 -0.14
12 0.27
13 0.14
14 -0.15
15 -0.15
16 0.08
17 0.08
18 -0.14
19 -0.15
2 -0.36
20 -0.15
21 -0.15
22 -0.15
23 0.12
24 0.28
25 0.28
26 0.57
27 0.34
28 0.08
29 -0.15
3 -0.36
30 -0.15
31 -0.15
32 -0.15
33 -0.15
4 -0.57
44 0.15
45 0.15
46 0.15
47 0.15
48 0.15
49 0.15
5 -0.81
56 0.37
59 0.15
6 -0.55
60 0.15
61 0.15
62 0.15
63 0.15
7 0.27
8 0.41
9 0.14

> <PUBCHEM_EFFECTIVE_ROTOR_COUNT>
10.8

> <PUBCHEM_PHARMACOPHORE_FEATURES>
10
1 1 acceptor
1 2 acceptor
1 3 acceptor
1 4 acceptor
1 5 cation
1 6 donor
6 10 11 14 15 16 17 rings
6 18 19 20 21 22 23 rings
6 28 29 30 31 32 33 rings
6 5 7 8 9 10 11 rings

> <PUBCHEM_HEAVY_ATOM_COUNT>
33

> <PUBCHEM_ATOM_DEF_STEREO_COUNT>
0

> <PUBCHEM_ATOM_UDEF_STEREO_COUNT>
0

> <PUBCHEM_BOND_DEF_STEREO_COUNT>
0

> <PUBCHEM_BOND_UDEF_STEREO_COUNT>
0

> <PUBCHEM_ISOTOPIC_ATOM_COUNT>
0

> <PUBCHEM_COMPONENT_COUNT>
1

> <PUBCHEM_CACTVS_TAUTO_COUNT>
2

> <PUBCHEM_CONFORMER_ID>
02A803C000000005

> <PUBCHEM_MMFF94_ENERGY>
117.2739

> <PUBCHEM_FEATURE_SELFOVERLAP>
50.781

> <PUBCHEM_SHAPE_FINGERPRINT>
10 15 17967811643588978186
106641 1 17822010909152491927
11061554 47 18041277678459200789
11211813 74 18343862243293696328
11409948 35 18340207372402179710
11607047 141 17968364656143514626
11966995 178 18409169896941532118
12013929 2 18409450262893663746
12013929 94 18412545441100628555
12089408 11 18059849576360483943
12498461 61 13190635953888606961
12522641 33 17775004566404187135
12664476 115 18260264144275441685
13740195 50 18259985990278732547
14117953 113 14333407865213488825
14251764 46 16515406261662893391
14344974 52 18342454872657390371
14428016 248 17846784001511783721
14617042 71 18411701014645917721
15061470 23 17530964662368600725
15065858 18 18114180810066142315
15219723 13 16733256860673359954
15510794 2 18113622270221585027
155225 1 18410855455833200993
15530121 191 18335412448494077485
15773216 30 13829866664262313061
15840311 113 18409451393250537900
15890870 6 18343584044606736435
16087824 20 18411981391524627656
16728433 110 18409730665025303701
1754911 235 17775280569734103277
17686467 74 18113337501806681437
19315958 150 18413110541682847383
20156587 128 15625952997505282839
2026 5 8646226839160090112
20812841 46 18334010589207062730
21026386 69 17677042448325407540
21102433 48 12757153494368848265
21362267 2 18340472443928427221
21362267 313 17241318054715008809
21792934 111 17894349981728992380
21792961 116 8502658100416362487
232437 2 18410573976561523043
3092352 35 17203608181906337799
395649 100 18337104666874511775
4073 2 18115026433308383970
44389302 135 13840259295592039728
57676310 78 17846230909310082822
59521099 67 12103555404028077866
59521270 166 12895076194338526553
59521506 201 17057506327424481032
59682541 35 18113339709166209139
6201320 215 12613018463723621487
67123 10 18410573977416234283
9663363 56 8718825379970054678
9937071 3 8934999278327026956

> <PUBCHEM_SHAPE_MULTIPOLES>
645.69
48.1
2.19
0.92
61.26
1.17
0.1
23.27
-1.75
-4.87
-0.42
0.11
0.05
2.26

> <PUBCHEM_SHAPE_SELFOVERLAP>
1381.165

> <PUBCHEM_SHAPE_VOLUME>
357.7

> <PUBCHEM_COORDINATE_TYPE>
2
5
10

$$$$