13
 OpenBabel03302012423D

 78 83  0  0  0  0  0  0  0  0999 V2000
    0.7263    1.0815   -0.4368 C   0  0  0  0  0  0  0  0  0  0  0  0
    2.1969    1.1042   -0.4367 N   0  3  0  0  0  0  0  0  0  0  0  0
    2.8316    1.8162    0.6727 C   0  0  0  0  0  0  0  0  0  0  0  0
    2.8933    0.4897   -1.3819 C   0  0  0  0  0  0  0  0  0  0  0  0
    4.3130    0.4616   -1.4246 C   0  0  0  0  0  0  0  0  0  0  0  0
    5.0334   -0.2327   -2.4340 C   0  0  0  0  0  0  0  0  0  0  0  0
    4.3929   -0.9302   -3.5038 C   0  0  0  0  0  0  0  0  0  0  0  0
    5.0600   -1.5745   -4.6325 C   0  0  0  0  0  0  0  0  0  0  0  0
    6.5863   -1.5935   -4.7089 C   0  0  0  0  0  0  0  0  0  0  0  0
    7.3785   -2.6784   -5.1280 C   0  0  0  0  0  0  0  0  0  0  0  0
    8.7637   -2.4835   -4.9986 C   0  0  0  0  0  0  0  0  0  0  0  0
    9.1167   -1.2328   -4.4928 C   0  0  0  0  0  0  0  0  0  0  0  0
   10.4965   -0.7475   -4.1532 C   0  0  0  0  0  0  0  0  0  0  0  0
   11.5159   -1.7310   -3.8557 S   0  0  0  0  0  0  0  0  0  0  0  0
   10.8257    0.6596   -4.1276 N   0  0  0  0  0  0  0  0  0  0  0  0
   10.1768    1.5857   -5.0473 C   0  0  0  0  0  0  0  0  0  0  0  0
   11.2428    2.1682   -5.9874 C   0  0  0  0  0  0  0  0  0  0  0  0
   12.3587    2.8382   -5.1758 C   0  0  0  0  0  0  0  0  0  0  0  0
   12.9831    1.8232   -4.2084 C   0  0  0  0  0  0  0  0  0  0  0  0
   11.9002    1.2230   -3.3040 C   0  0  0  0  0  0  0  0  0  0  0  0
    7.6810   -0.3907   -4.2266 S   0  0  0  0  0  0  0  0  0  0  0  0
    4.2804   -2.1302   -5.7481 C   0  0  0  0  0  0  0  0  0  0  0  0
    4.8952   -2.4937   -6.9966 C   0  0  0  0  0  0  0  0  0  0  0  0
    4.1448   -2.9308   -8.1220 C   0  0  0  0  0  0  0  0  0  0  0  0
    2.7478   -2.9838   -8.0388 C   0  0  0  0  0  0  0  0  0  0  0  0
    2.1047   -2.6448   -6.8455 C   0  0  0  0  0  0  0  0  0  0  0  0
    2.8581   -2.2682   -5.7074 C   0  0  0  0  0  0  0  0  0  0  0  0
    1.8777   -2.0651   -4.2252 Se  0  0  0  0  0  0  0  0  0  0  0  0
    2.9247   -0.9341   -3.3755 C   0  0  0  0  0  0  0  0  0  0  0  0
    2.2439   -0.2360   -2.3864 C   0  0  0  0  0  0  0  0  0  0  0  0
    0.5710   -2.6629   -6.7948 C   0  0  0  0  0  0  0  0  0  0  0  0
   -0.1059   -2.7663   -8.1625 C   0  0  0  0  0  0  0  0  0  0  0  0
    0.5982   -3.8263   -8.9759 C   0  0  0  0  0  0  0  0  0  0  0  0
    1.9668   -3.3728   -9.1729 N   0  0  0  0  0  0  0  0  0  0  0  0
    2.5357   -3.2317  -10.4983 C   0  0  0  0  0  0  0  0  0  0  0  0
    3.8924   -3.9141  -10.5052 C   0  0  0  0  0  0  0  0  0  0  0  0
    4.8341   -3.2941   -9.4370 C   0  0  0  0  0  0  0  0  0  0  0  0
    2.1851   -1.5217    0.5087 F   0  0  0  0  0  0  0  0  0  0  0  0
    3.5017   -2.2672    1.3091 P   0  5  0  0  0  0  0  0  0  0  0  0
    4.8132   -3.0218    2.1162 F   0  0  0  0  0  0  0  0  0  0  0  0
    2.5206   -3.6473    1.5854 F   0  0  0  0  0  0  0  0  0  0  0  0
    2.9709   -1.5852    2.7939 F   0  0  0  0  0  0  0  0  0  0  0  0
    4.0278   -2.9302   -0.1859 F   0  0  0  0  0  0  0  0  0  0  0  0
    4.4975   -0.9032    1.0404 F   0  0  0  0  0  0  0  0  0  0  0  0
    0.2771    1.6057    0.4310 H   0  0  0  0  0  0  0  0  0  0  0  0
    0.3500    0.0360   -0.3804 H   0  0  0  0  0  0  0  0  0  0  0  0
    0.3364    1.5728   -1.3543 H   0  0  0  0  0  0  0  0  0  0  0  0
    2.0858    2.2722    1.3603 H   0  0  0  0  0  0  0  0  0  0  0  0
    3.4778    2.6337    0.3000 H   0  0  0  0  0  0  0  0  0  0  0  0
    3.4132    1.1207    1.3021 H   0  0  0  0  0  0  0  0  0  0  0  0
    4.8936    0.9745   -0.6671 H   0  0  0  0  0  0  0  0  0  0  0  0
    6.0944   -0.1745   -2.3298 H   0  0  0  0  0  0  0  0  0  0  0  0
    6.9754   -3.6141   -5.4847 H   0  0  0  0  0  0  0  0  0  0  0  0
    9.4913   -3.2445   -5.2561 H   0  0  0  0  0  0  0  0  0  0  0  0
    9.6780    2.3968   -4.4744 H   0  0  0  0  0  0  0  0  0  0  0  0
    9.4227    1.0850   -5.6855 H   0  0  0  0  0  0  0  0  0  0  0  0
   10.7806    2.9003   -6.6824 H   0  0  0  0  0  0  0  0  0  0  0  0
   11.6816    1.3419   -6.5917 H   0  0  0  0  0  0  0  0  0  0  0  0
   11.9355    3.6919   -4.6029 H   0  0  0  0  0  0  0  0  0  0  0  0
   13.1408    3.2298   -5.8617 H   0  0  0  0  0  0  0  0  0  0  0  0
   13.7665    2.3170   -3.5933 H   0  0  0  0  0  0  0  0  0  0  0  0
   13.4591    1.0041   -4.7904 H   0  0  0  0  0  0  0  0  0  0  0  0
   11.4747    2.0248   -2.6594 H   0  0  0  0  0  0  0  0  0  0  0  0
   12.3601    0.4751   -2.6253 H   0  0  0  0  0  0  0  0  0  0  0  0
    5.9576   -2.4174   -7.1554 H   0  0  0  0  0  0  0  0  0  0  0  0
    1.1675   -0.3285   -2.3876 H   0  0  0  0  0  0  0  0  0  0  0  0
    0.1868   -1.7133   -6.3581 H   0  0  0  0  0  0  0  0  0  0  0  0
    0.2646   -3.5095   -6.1456 H   0  0  0  0  0  0  0  0  0  0  0  0
   -0.0076   -1.8000   -8.7079 H   0  0  0  0  0  0  0  0  0  0  0  0
   -1.1870   -2.9802   -8.0214 H   0  0  0  0  0  0  0  0  0  0  0  0
    0.0717   -3.9786   -9.9409 H   0  0  0  0  0  0  0  0  0  0  0  0
    0.5851   -4.7885   -8.4139 H   0  0  0  0  0  0  0  0  0  0  0  0
    1.8659   -3.6671  -11.2741 H   0  0  0  0  0  0  0  0  0  0  0  0
    2.6664   -2.1522  -10.7235 H   0  0  0  0  0  0  0  0  0  0  0  0
    4.3626   -3.8451  -11.5115 H   0  0  0  0  0  0  0  0  0  0  0  0
    3.7135   -4.9874  -10.2806 H   0  0  0  0  0  0  0  0  0  0  0  0
    5.2795   -2.3581   -9.8330 H   0  0  0  0  0  0  0  0  0  0  0  0
    5.6520   -4.0283   -9.2708 H   0  0  0  0  0  0  0  0  0  0  0  0
  1  2  1  0  0  0  0
  1 45  1  0  0  0  0
  1 46  1  0  0  0  0
  1 47  1  0  0  0  0
  2  3  1  0  0  0  0
  2  4  2  0  0  0  0
  3 48  1  0  0  0  0
  3 49  1  0  0  0  0
  3 50  1  0  0  0  0
  4  5  1  0  0  0  0
  4 30  1  0  0  0  0
  5  6  2  0  0  0  0
  5 51  1  0  0  0  0
  6  7  1  0  0  0  0
  6 52  1  0  0  0  0
  7  8  2  0  0  0  0
  7 29  1  0  0  0  0
  8  9  1  0  0  0  0
  8 22  1  0  0  0  0
  9 10  2  0  0  0  0
  9 21  1  0  0  0  0
 10 11  1  0  0  0  0
 10 53  1  0  0  0  0
 11 12  2  0  0  0  0
 11 54  1  0  0  0  0
 12 13  1  0  0  0  0
 12 21  1  0  0  0  0
 13 14  2  0  0  0  0
 13 15  1  0  0  0  0
 15 16  1  0  0  0  0
 15 20  1  0  0  0  0
 16 17  1  0  0  0  0
 16 55  1  0  0  0  0
 16 56  1  0  0  0  0
 17 18  1  0  0  0  0
 17 57  1  0  0  0  0
 17 58  1  0  0  0  0
 18 19  1  0  0  0  0
 18 59  1  0  0  0  0
 18 60  1  0  0  0  0
 19 20  1  0  0  0  0
 19 61  1  0  0  0  0
 19 62  1  0  0  0  0
 20 63  1  0  0  0  0
 20 64  1  0  0  0  0
 22 23  1  0  0  0  0
 22 27  2  0  0  0  0
 23 24  2  0  0  0  0
 23 65  1  0  0  0  0
 24 25  1  0  0  0  0
 24 37  1  0  0  0  0
 25 26  2  0  0  0  0
 25 34  1  0  0  0  0
 26 27  1  0  0  0  0
 26 31  1  0  0  0  0
 27 28  1  0  0  0  0
 28 29  1  0  0  0  0
 29 30  2  0  0  0  0
 30 66  1  0  0  0  0
 31 32  1  0  0  0  0
 31 67  1  0  0  0  0
 31 68  1  0  0  0  0
 32 33  1  0  0  0  0
 32 69  1  0  0  0  0
 32 70  1  0  0  0  0
 33 34  1  0  0  0  0
 33 71  1  0  0  0  0
 33 72  1  0  0  0  0
 34 35  1  0  0  0  0
 35 36  1  0  0  0  0
 35 73  1  0  0  0  0
 35 74  1  0  0  0  0
 36 37  1  0  0  0  0
 36 75  1  0  0  0  0
 36 76  1  0  0  0  0
 37 77  1  0  0  0  0
 37 78  1  0  0  0  0
 38 39  1  0  0  0  0
 39 40  1  0  0  0  0
 39 41  1  0  0  0  0
 39 42  1  0  0  0  0
 39 43  1  0  0  0  0
 39 44  1  0  0  0  0
M  CHG  2   2   1  39  -1
M  END
$$$$