14
 OpenBabel03302012423D

 70 73  0  0  0  0  0  0  0  0999 V2000
    0.8077   -0.7926   -0.7510 C   0  0  0  0  0  0  0  0  0  0  0  0
    1.4188   -0.2040    0.4374 N   0  0  0  0  0  0  0  0  0  0  0  0
    1.0876    1.2028    0.7140 C   0  0  0  0  0  0  0  0  0  0  0  0
    2.3453   -1.0165    1.2287 C   0  0  0  0  0  0  0  0  0  0  0  0
    2.3270   -2.4213    1.1591 C   0  0  0  0  0  0  0  0  0  0  0  0
    3.2471   -3.2213    1.8407 C   0  0  0  0  0  0  0  0  0  0  0  0
    4.3216   -2.6901    2.6141 C   0  0  0  0  0  0  0  0  0  0  0  0
    5.2863   -3.5610    3.2873 C   0  0  0  0  0  0  0  0  0  0  0  0
    5.0736   -5.0701    3.2998 C   0  0  0  0  0  0  0  0  0  0  0  0
    6.0487   -6.0741    3.1427 C   0  0  0  0  0  0  0  0  0  0  0  0
    5.5602   -7.3833    3.2124 C   0  0  0  0  0  0  0  0  0  0  0  0
    4.1905   -7.4519    3.4291 C   0  0  0  0  0  0  0  0  0  0  0  0
    3.3561   -8.6808    3.4676 C   0  0  0  0  0  0  0  0  0  0  0  0
    3.8388   -9.8711    2.8027 S   0  0  0  0  0  0  0  0  0  0  0  0
    2.0999   -8.7022    4.1683 N   0  0  0  0  0  0  0  0  0  0  0  0
    1.9341   -7.9622    5.4140 C   0  0  0  0  0  0  0  0  0  0  0  0
    1.7272   -8.9748    6.5480 C   0  0  0  0  0  0  0  0  0  0  0  0
    0.5399   -9.8947    6.2310 C   0  0  0  0  0  0  0  0  0  0  0  0
    0.7613  -10.6041    4.8870 C   0  0  0  0  0  0  0  0  0  0  0  0
    0.9933   -9.5730    3.7820 C   0  0  0  0  0  0  0  0  0  0  0  0
    3.6088   -5.8762    3.5511 S   0  0  0  0  0  0  0  0  0  0  0  0
    6.4643   -3.0470    3.9506 C   0  0  0  0  0  0  0  0  0  0  0  0
    7.3470   -3.8626    4.7018 C   0  0  0  0  0  0  0  0  0  0  0  0
    8.5366   -3.3985    5.2745 C   0  0  0  0  0  0  0  0  0  0  0  0
    8.9636   -2.0478    5.1503 C   0  0  0  0  0  0  0  0  0  0  0  0
   10.1122   -1.6272    5.6783 N   0  3  0  0  0  0  0  0  0  0  0  0
   10.6172   -0.2534    5.5796 C   0  0  0  0  0  0  0  0  0  0  0  0
   11.0424   -2.4665    6.4629 C   0  0  0  0  0  0  0  0  0  0  0  0
    8.0711   -1.1881    4.4589 C   0  0  0  0  0  0  0  0  0  0  0  0
    6.8438   -1.6206    3.9205 C   0  0  0  0  0  0  0  0  0  0  0  0
    5.7377   -0.2982    3.3623 Se  0  0  0  0  0  0  0  0  0  0  0  0
    4.3810   -1.2672    2.6387 C   0  0  0  0  0  0  0  0  0  0  0  0
    3.3760   -0.4676    2.0198 C   0  0  0  0  0  0  0  0  0  0  0  0
    3.7689    0.5353   -1.6078 F   0  0  0  0  0  0  0  0  0  0  0  0
    5.0989    1.3052   -0.8383 P   0  5  0  0  0  0  0  0  0  0  0  0
    4.1087    1.8373    0.4227 F   0  0  0  0  0  0  0  0  0  0  0  0
    4.7290    2.7586   -1.6699 F   0  0  0  0  0  0  0  0  0  0  0  0
    6.4112    2.0734   -0.0469 F   0  0  0  0  0  0  0  0  0  0  0  0
    5.4584   -0.1506   -0.0026 F   0  0  0  0  0  0  0  0  0  0  0  0
    6.1264    0.8083   -2.1199 F   0  0  0  0  0  0  0  0  0  0  0  0
    0.1882   -0.0721   -1.3279 H   0  0  0  0  0  0  0  0  0  0  0  0
    0.1369   -1.6275   -0.4733 H   0  0  0  0  0  0  0  0  0  0  0  0
    1.6044   -1.1533   -1.4368 H   0  0  0  0  0  0  0  0  0  0  0  0
    0.4884    1.6579   -0.1107 H   0  0  0  0  0  0  0  0  0  0  0  0
    1.9548    1.8594    0.8045 H   0  0  0  0  0  0  0  0  0  0  0  0
    0.4752    1.2878    1.6313 H   0  0  0  0  0  0  0  0  0  0  0  0
    1.5702   -2.9215    0.5668 H   0  0  0  0  0  0  0  0  0  0  0  0
    3.1114   -4.2703    1.6831 H   0  0  0  0  0  0  0  0  0  0  0  0
    7.1004   -5.8899    2.9684 H   0  0  0  0  0  0  0  0  0  0  0  0
    6.1951   -8.2556    3.1115 H   0  0  0  0  0  0  0  0  0  0  0  0
    1.0630   -7.2763    5.3320 H   0  0  0  0  0  0  0  0  0  0  0  0
    2.8307   -7.3648    5.6759 H   0  0  0  0  0  0  0  0  0  0  0  0
    1.5623   -8.4462    7.5105 H   0  0  0  0  0  0  0  0  0  0  0  0
    2.6485   -9.5935    6.6436 H   0  0  0  0  0  0  0  0  0  0  0  0
   -0.3903   -9.2884    6.1830 H   0  0  0  0  0  0  0  0  0  0  0  0
    0.4281  -10.6525    7.0354 H   0  0  0  0  0  0  0  0  0  0  0  0
   -0.1154  -11.2384    4.6370 H   0  0  0  0  0  0  0  0  0  0  0  0
    1.6604  -11.2551    4.9561 H   0  0  0  0  0  0  0  0  0  0  0  0
    0.0804   -8.9519    3.6411 H   0  0  0  0  0  0  0  0  0  0  0  0
    1.1800  -10.0942    2.8199 H   0  0  0  0  0  0  0  0  0  0  0  0
    7.1590   -4.9003    4.9009 H   0  0  0  0  0  0  0  0  0  0  0  0
    9.0836   -4.1558    5.7946 H   0  0  0  0  0  0  0  0  0  0  0  0
   10.0306    0.4597    4.9870 H   0  0  0  0  0  0  0  0  0  0  0  0
   11.6220   -0.2597    5.1044 H   0  0  0  0  0  0  0  0  0  0  0  0
   10.7104    0.1891    6.5960 H   0  0  0  0  0  0  0  0  0  0  0  0
   10.7796   -3.5164    6.6060 H   0  0  0  0  0  0  0  0  0  0  0  0
   11.1503   -2.0386    7.4853 H   0  0  0  0  0  0  0  0  0  0  0  0
   12.0433   -2.4625    5.9813 H   0  0  0  0  0  0  0  0  0  0  0  0
    8.2556   -0.1435    4.3504 H   0  0  0  0  0  0  0  0  0  0  0  0
    3.4546    0.5982    2.1216 H   0  0  0  0  0  0  0  0  0  0  0  0
  1  2  1  0  0  0  0
  1 41  1  0  0  0  0
  1 42  1  0  0  0  0
  1 43  1  0  0  0  0
  2  3  1  0  0  0  0
  2  4  1  0  0  0  0
  3 44  1  0  0  0  0
  3 45  1  0  0  0  0
  3 46  1  0  0  0  0
  4  5  1  0  0  0  0
  4 33  2  0  0  0  0
  5  6  2  0  0  0  0
  5 47  1  0  0  0  0
  6  7  1  0  0  0  0
  6 48  1  0  0  0  0
  7  8  1  0  0  0  0
  7 32  2  0  0  0  0
  8  9  1  0  0  0  0
  8 22  2  0  0  0  0
  9 10  2  0  0  0  0
  9 21  1  0  0  0  0
 10 11  1  0  0  0  0
 10 49  1  0  0  0  0
 11 12  2  0  0  0  0
 11 50  1  0  0  0  0
 12 13  1  0  0  0  0
 12 21  1  0  0  0  0
 13 14  2  0  0  0  0
 13 15  1  0  0  0  0
 15 16  1  0  0  0  0
 15 20  1  0  0  0  0
 16 17  1  0  0  0  0
 16 51  1  0  0  0  0
 16 52  1  0  0  0  0
 17 18  1  0  0  0  0
 17 53  1  0  0  0  0
 17 54  1  0  0  0  0
 18 19  1  0  0  0  0
 18 55  1  0  0  0  0
 18 56  1  0  0  0  0
 19 20  1  0  0  0  0
 19 57  1  0  0  0  0
 19 58  1  0  0  0  0
 20 59  1  0  0  0  0
 20 60  1  0  0  0  0
 22 23  1  0  0  0  0
 22 30  1  0  0  0  0
 23 24  2  0  0  0  0
 23 61  1  0  0  0  0
 24 25  1  0  0  0  0
 24 62  1  0  0  0  0
 25 26  2  0  0  0  0
 25 29  1  0  0  0  0
 26 27  1  0  0  0  0
 26 28  1  0  0  0  0
 27 63  1  0  0  0  0
 27 64  1  0  0  0  0
 27 65  1  0  0  0  0
 28 66  1  0  0  0  0
 28 67  1  0  0  0  0
 28 68  1  0  0  0  0
 29 30  2  0  0  0  0
 29 69  1  0  0  0  0
 30 31  1  0  0  0  0
 31 32  1  0  0  0  0
 32 33  1  0  0  0  0
 33 70  1  0  0  0  0
 34 35  1  0  0  0  0
 35 36  1  0  0  0  0
 35 37  1  0  0  0  0
 35 38  1  0  0  0  0
 35 39  1  0  0  0  0
 35 40  1  0  0  0  0
M  CHG  2  26   1  35  -1
M  END
$$$$