15
 OpenBabel03302012423D

 78 83  0  0  0  0  0  0  0  0999 V2000
    8.7039    0.4401    1.2671 C   0  0  0  0  0  0  0  0  0  0  0  0
    9.0608    0.9555   -0.0532 N   0  3  0  0  0  0  0  0  0  0  0  0
   10.4676    0.7343   -0.4777 C   0  0  0  0  0  0  0  0  0  0  0  0
    8.2212    1.5298   -0.8803 C   0  0  0  0  0  0  0  0  0  0  0  0
    8.6869    1.5192   -2.2362 C   0  0  0  0  0  0  0  0  0  0  0  0
    7.7429    0.8848   -2.9065 C   0  0  0  0  0  0  0  0  0  0  0  0
    6.9019    1.9487   -3.3936 C   0  0  0  0  0  0  0  0  0  0  0  0
    7.0440    2.3184   -4.6946 C   0  0  0  0  0  0  0  0  0  0  0  0
    8.1229    1.5503   -5.3595 C   0  0  0  0  0  0  0  0  0  0  0  0
    9.4074    2.0592   -5.2643 C   0  0  0  0  0  0  0  0  0  0  0  0
   10.3657    1.0823   -5.3658 C   0  0  0  0  0  0  0  0  0  0  0  0
    9.8260   -0.1925   -5.5254 C   0  0  0  0  0  0  0  0  0  0  0  0
   10.6299   -1.4161   -5.4932 C   0  0  0  0  0  0  0  0  0  0  0  0
   10.0417   -2.6420   -5.0023 S   0  0  0  0  0  0  0  0  0  0  0  0
   11.9849   -1.3673   -5.9476 N   0  0  0  0  0  0  0  0  0  0  0  0
   12.3530   -0.4625   -7.0333 C   0  0  0  0  0  0  0  0  0  0  0  0
   12.7671   -1.3053   -8.2308 C   0  0  0  0  0  0  0  0  0  0  0  0
   13.9092   -2.2408   -7.8250 C   0  0  0  0  0  0  0  0  0  0  0  0
   13.4734   -3.1390   -6.6548 C   0  0  0  0  0  0  0  0  0  0  0  0
   13.0142   -2.2822   -5.4777 C   0  0  0  0  0  0  0  0  0  0  0  0
    8.1502   -0.1189   -5.5716 S   0  0  0  0  0  0  0  0  0  0  0  0
    6.4961    3.4986   -5.4027 C   0  0  0  0  0  0  0  0  0  0  0  0
    7.1025    3.7479   -6.6461 C   0  0  0  0  0  0  0  0  0  0  0  0
    6.7722    4.7796   -7.4520 C   0  0  0  0  0  0  0  0  0  0  0  0
    5.7628    5.6618   -7.0683 C   0  0  0  0  0  0  0  0  0  0  0  0
    5.0576    5.4345   -5.8275 C   0  0  0  0  0  0  0  0  0  0  0  0
    5.4602    4.3449   -4.9379 C   0  0  0  0  0  0  0  0  0  0  0  0
    4.5899    3.8660   -2.9258 Te  0  0  0  0  0  0  0  0  0  0  0  0
    6.2038    2.5587   -2.2147 C   0  0  0  0  0  0  0  0  0  0  0  0
    6.7498    2.2020   -0.9060 C   0  0  0  0  0  0  0  0  0  0  0  0
    3.9200    6.3824   -5.4938 C   0  0  0  0  0  0  0  0  0  0  0  0
    3.4754    7.2344   -6.7102 C   0  0  0  0  0  0  0  0  0  0  0  0
    4.6718    7.8532   -7.4144 C   0  0  0  0  0  0  0  0  0  0  0  0
    5.5074    6.7883   -7.9240 N   0  0  0  0  0  0  0  0  0  0  0  0
    6.5076    7.1501   -8.9367 C   0  0  0  0  0  0  0  0  0  0  0  0
    6.9481    5.9053   -9.6905 C   0  0  0  0  0  0  0  0  0  0  0  0
    7.5778    4.9268   -8.7228 C   0  0  0  0  0  0  0  0  0  0  0  0
    1.1830   -0.6557    0.5594 F   0  0  0  0  0  0  0  0  0  0  0  0
    2.5796    0.3187    0.3298 P   0  5  0  0  0  0  0  0  0  0  0  0
    2.5764    0.7177    2.0007 F   0  0  0  0  0  0  0  0  0  0  0  0
    1.5833    1.6790   -0.0014 F   0  0  0  0  0  0  0  0  0  0  0  0
    2.5849   -0.0813   -1.3407 F   0  0  0  0  0  0  0  0  0  0  0  0
    3.9739    1.2903    0.1024 F   0  0  0  0  0  0  0  0  0  0  0  0
    3.5791   -1.0398    0.6578 F   0  0  0  0  0  0  0  0  0  0  0  0
    9.6022   -0.0027    1.7729 H   0  0  0  0  0  0  0  0  0  0  0  0
    8.0326   -0.4438    1.1319 H   0  0  0  0  0  0  0  0  0  0  0  0
    8.2672    1.1970    1.9273 H   0  0  0  0  0  0  0  0  0  0  0  0
   11.1231    0.2519    0.2684 H   0  0  0  0  0  0  0  0  0  0  0  0
   10.9130    1.7357   -0.6908 H   0  0  0  0  0  0  0  0  0  0  0  0
   10.5446    0.1326   -1.4150 H   0  0  0  0  0  0  0  0  0  0  0  0
    9.0420    2.5039   -2.5489 H   0  0  0  0  0  0  0  0  0  0  0  0
    7.1739    0.0718   -2.4223 H   0  0  0  0  0  0  0  0  0  0  0  0
    9.6410    3.0850   -4.9926 H   0  0  0  0  0  0  0  0  0  0  0  0
   11.4171    1.2969   -5.2235 H   0  0  0  0  0  0  0  0  0  0  0  0
   13.1737    0.2099   -6.7037 H   0  0  0  0  0  0  0  0  0  0  0  0
   11.5083    0.1641   -7.3870 H   0  0  0  0  0  0  0  0  0  0  0  0
   13.0711   -0.6427   -9.0676 H   0  0  0  0  0  0  0  0  0  0  0  0
   11.8895   -1.9082   -8.5610 H   0  0  0  0  0  0  0  0  0  0  0  0
   14.7845   -1.6273   -7.5197 H   0  0  0  0  0  0  0  0  0  0  0  0
   14.1942   -2.8698   -8.6921 H   0  0  0  0  0  0  0  0  0  0  0  0
   14.3095   -3.7947   -6.3373 H   0  0  0  0  0  0  0  0  0  0  0  0
   12.6207   -3.7763   -6.9782 H   0  0  0  0  0  0  0  0  0  0  0  0
   13.8640   -1.6854   -5.0789 H   0  0  0  0  0  0  0  0  0  0  0  0
   12.6602   -2.9336   -4.6508 H   0  0  0  0  0  0  0  0  0  0  0  0
    7.8945    3.1377   -7.0435 H   0  0  0  0  0  0  0  0  0  0  0  0
    6.2892    2.5233    0.0225 H   0  0  0  0  0  0  0  0  0  0  0  0
    4.2395    7.0367   -4.6587 H   0  0  0  0  0  0  0  0  0  0  0  0
    3.0206    5.8081   -5.1840 H   0  0  0  0  0  0  0  0  0  0  0  0
    2.7572    8.0205   -6.3984 H   0  0  0  0  0  0  0  0  0  0  0  0
    2.9665    6.5846   -7.4604 H   0  0  0  0  0  0  0  0  0  0  0  0
    5.2557    8.5027   -6.7270 H   0  0  0  0  0  0  0  0  0  0  0  0
    4.3087    8.4757   -8.2644 H   0  0  0  0  0  0  0  0  0  0  0  0
    7.3887    7.6286   -8.4525 H   0  0  0  0  0  0  0  0  0  0  0  0
    6.0811    7.8573   -9.6783 H   0  0  0  0  0  0  0  0  0  0  0  0
    7.6779    6.1321  -10.4998 H   0  0  0  0  0  0  0  0  0  0  0  0
    6.0500    5.4372  -10.1488 H   0  0  0  0  0  0  0  0  0  0  0  0
    8.5995    5.2555   -8.4267 H   0  0  0  0  0  0  0  0  0  0  0  0
    7.6724    3.9505   -9.2513 H   0  0  0  0  0  0  0  0  0  0  0  0
  1  2  1  0  0  0  0
  1 45  1  0  0  0  0
  1 46  1  0  0  0  0
  1 47  1  0  0  0  0
  2  3  1  0  0  0  0
  2  4  2  0  0  0  0
  3 48  1  0  0  0  0
  3 49  1  0  0  0  0
  3 50  1  0  0  0  0
  4  5  1  0  0  0  0
  4 30  1  0  0  0  0
  5  6  2  0  0  0  0
  5 51  1  0  0  0  0
  6  7  1  0  0  0  0
  6 52  1  0  0  0  0
  7  8  2  0  0  0  0
  7 29  1  0  0  0  0
  8  9  1  0  0  0  0
  8 22  1  0  0  0  0
  9 10  2  0  0  0  0
  9 21  1  0  0  0  0
 10 11  1  0  0  0  0
 10 53  1  0  0  0  0
 11 12  2  0  0  0  0
 11 54  1  0  0  0  0
 12 13  1  0  0  0  0
 12 21  1  0  0  0  0
 13 14  2  0  0  0  0
 13 15  1  0  0  0  0
 15 16  1  0  0  0  0
 15 20  1  0  0  0  0
 16 17  1  0  0  0  0
 16 55  1  0  0  0  0
 16 56  1  0  0  0  0
 17 18  1  0  0  0  0
 17 57  1  0  0  0  0
 17 58  1  0  0  0  0
 18 19  1  0  0  0  0
 18 59  1  0  0  0  0
 18 60  1  0  0  0  0
 19 20  1  0  0  0  0
 19 61  1  0  0  0  0
 19 62  1  0  0  0  0
 20 63  1  0  0  0  0
 20 64  1  0  0  0  0
 22 23  1  0  0  0  0
 22 27  2  0  0  0  0
 23 24  2  0  0  0  0
 23 65  1  0  0  0  0
 24 25  1  0  0  0  0
 24 37  1  0  0  0  0
 25 26  2  0  0  0  0
 25 34  1  0  0  0  0
 26 27  1  0  0  0  0
 26 31  1  0  0  0  0
 27 28  1  0  0  0  0
 28 29  1  0  0  0  0
 29 30  2  0  0  0  0
 30 66  1  0  0  0  0
 31 32  1  0  0  0  0
 31 67  1  0  0  0  0
 31 68  1  0  0  0  0
 32 33  1  0  0  0  0
 32 69  1  0  0  0  0
 32 70  1  0  0  0  0
 33 34  1  0  0  0  0
 33 71  1  0  0  0  0
 33 72  1  0  0  0  0
 34 35  1  0  0  0  0
 35 36  1  0  0  0  0
 35 73  1  0  0  0  0
 35 74  1  0  0  0  0
 36 37  1  0  0  0  0
 36 75  1  0  0  0  0
 36 76  1  0  0  0  0
 37 77  1  0  0  0  0
 37 78  1  0  0  0  0
 38 39  1  0  0  0  0
 39 40  1  0  0  0  0
 39 41  1  0  0  0  0
 39 42  1  0  0  0  0
 39 43  1  0  0  0  0
 39 44  1  0  0  0  0
M  CHG  2   2   1  39  -1
M  END
$$$$