10699195
  -OEChem-03242010103D

 82 88  0     1  0  0  0  0  0999 V2000
    0.9342    0.0481   -1.2268 O   0  0  0  0  0  0  0  0  0  0  0  0
    2.3712    1.2847    0.2255 O   0  0  0  0  0  0  0  0  0  0  0  0
    2.6872   -0.7782    1.8217 O   0  0  0  0  0  0  0  0  0  0  0  0
   -3.5878   -0.4332    0.5423 O   0  0  0  0  0  0  0  0  0  0  0  0
    2.0217   -3.4763    1.0623 O   0  0  0  0  0  0  0  0  0  0  0  0
    0.2046   -2.0018    2.9255 O   0  0  0  0  0  0  0  0  0  0  0  0
   -1.9183   -0.3642   -2.7722 O   0  0  0  0  0  0  0  0  0  0  0  0
    3.3370   -4.0251   -1.4204 O   0  0  0  0  0  0  0  0  0  0  0  0
   -2.5158   -1.6125    2.7010 O   0  0  0  0  0  0  0  0  0  0  0  0
    4.0822   -1.9037   -2.9287 O   0  0  0  0  0  0  0  0  0  0  0  0
    2.1714    0.0194   -0.4511 C   0  0  1  0  0  0  0  0  0  0  0  0
    1.9943   -1.0939    0.6217 C   0  0  2  0  0  0  0  0  0  0  0  0
    0.5117   -0.9632    0.7965 C   0  0  0  0  0  0  0  0  0  0  0  0
   -0.0266   -0.3321   -0.3193 C   0  0  0  0  0  0  0  0  0  0  0  0
    3.3116   -0.2669   -1.3875 C   0  0  0  0  0  0  0  0  0  0  0  0
    2.3894   -2.4844    0.1680 C   0  0  0  0  0  0  0  0  0  0  0  0
   -1.3894   -0.1227   -0.4764 C   0  0  0  0  0  0  0  0  0  0  0  0
    2.6875    2.3562   -0.6724 C   0  0  2  0  0  0  0  0  0  0  0  0
   -0.3088   -1.3943    1.8238 C   0  0  0  0  0  0  0  0  0  0  0  0
   -1.9463    0.5603   -1.6887 C   0  0  2  0  0  0  0  0  0  0  0  0
    4.0569    2.0957   -1.3120 C   0  0  0  0  0  0  0  0  0  0  0  0
    4.1794    0.6778   -1.7819 C   0  0  0  0  0  0  0  0  0  0  0  0
    3.5214   -1.6546   -1.8655 C   0  0  0  0  0  0  0  0  0  0  0  0
    3.0385   -2.7515   -0.9820 C   0  0  0  0  0  0  0  0  0  0  0  0
   -2.2228   -0.5787    0.5548 C   0  0  0  0  0  0  0  0  0  0  0  0
   -3.3799    1.0179   -1.4298 C   0  0  0  0  0  0  0  0  0  0  0  0
   -1.6852   -1.1934    1.7008 C   0  0  0  0  0  0  0  0  0  0  0  0
   -4.1566   -0.1089   -0.7370 C   0  0  2  0  0  0  0  0  0  0  0  0
    2.6644    3.6641    0.0870 C   0  0  0  0  0  0  0  0  0  0  0  0
    4.0938   -0.9009    1.6601 C   0  0  0  0  0  0  0  0  0  0  0  0
   -5.6059    0.2776   -0.5263 C   0  0  0  0  0  0  0  0  0  0  0  0
    2.2958    4.8418   -0.5632 C   0  0  0  0  0  0  0  0  0  0  0  0
    3.0124    3.6926    1.4376 C   0  0  0  0  0  0  0  0  0  0  0  0
    1.1529   -4.4021    0.4449 C   0  0  0  0  0  0  0  0  0  0  0  0
    0.5685   -1.1630    4.0221 C   0  0  0  0  0  0  0  0  0  0  0  0
   -1.9872    0.3024   -4.0240 C   0  0  0  0  0  0  0  0  0  0  0  0
    4.6011   -4.4369   -0.9391 C   0  0  0  0  0  0  0  0  0  0  0  0
   -6.5551   -0.0125   -1.5065 C   0  0  0  0  0  0  0  0  0  0  0  0
   -5.9916    0.9243    0.6480 C   0  0  0  0  0  0  0  0  0  0  0  0
    2.2750    6.0479    0.1372 C   0  0  0  0  0  0  0  0  0  0  0  0
    2.9913    4.8986    2.1380 C   0  0  0  0  0  0  0  0  0  0  0  0
   -3.0101   -2.9456    2.6119 C   0  0  0  0  0  0  0  0  0  0  0  0
    2.6227    6.0763    1.4878 C   0  0  0  0  0  0  0  0  0  0  0  0
   -7.8896    0.3439   -1.3122 C   0  0  0  0  0  0  0  0  0  0  0  0
   -7.3261    1.2806    0.8423 C   0  0  0  0  0  0  0  0  0  0  0  0
   -8.2750    0.9904   -0.1378 C   0  0  0  0  0  0  0  0  0  0  0  0
    1.9062    2.3957   -1.4439 H   0  0  0  0  0  0  0  0  0  0  0  0
   -1.3257    1.4372   -1.9174 H   0  0  0  0  0  0  0  0  0  0  0  0
    4.8656    2.2765   -0.5924 H   0  0  0  0  0  0  0  0  0  0  0  0
    4.2126    2.7829   -2.1517 H   0  0  0  0  0  0  0  0  0  0  0  0
    5.0180    0.4438   -2.4310 H   0  0  0  0  0  0  0  0  0  0  0  0
   -3.3520    1.8934   -0.7659 H   0  0  0  0  0  0  0  0  0  0  0  0
   -3.8892    1.3273   -2.3472 H   0  0  0  0  0  0  0  0  0  0  0  0
   -4.1326   -1.0259   -1.3423 H   0  0  0  0  0  0  0  0  0  0  0  0
    4.5397   -0.6421    2.6268 H   0  0  0  0  0  0  0  0  0  0  0  0
    4.5038   -0.1886    0.9442 H   0  0  0  0  0  0  0  0  0  0  0  0
    4.4216   -1.9212    1.4450 H   0  0  0  0  0  0  0  0  0  0  0  0
    2.0247    4.8329   -1.6155 H   0  0  0  0  0  0  0  0  0  0  0  0
    3.3151    2.7915    1.9640 H   0  0  0  0  0  0  0  0  0  0  0  0
    0.5264   -4.8411    1.2285 H   0  0  0  0  0  0  0  0  0  0  0  0
    1.7125   -5.2250   -0.0091 H   0  0  0  0  0  0  0  0  0  0  0  0
    0.4773   -3.9454   -0.2889 H   0  0  0  0  0  0  0  0  0  0  0  0
    0.9062   -0.1746    3.6935 H   0  0  0  0  0  0  0  0  0  0  0  0
   -0.2917   -1.0496    4.6886 H   0  0  0  0  0  0  0  0  0  0  0  0
    1.3782   -1.6491    4.5729 H   0  0  0  0  0  0  0  0  0  0  0  0
   -2.9537    0.7891   -4.1738 H   0  0  0  0  0  0  0  0  0  0  0  0
   -1.1749    1.0287   -4.1272 H   0  0  0  0  0  0  0  0  0  0  0  0
   -1.8688   -0.4490   -4.8103 H   0  0  0  0  0  0  0  0  0  0  0  0
    5.4019   -3.7792   -1.2947 H   0  0  0  0  0  0  0  0  0  0  0  0
    4.6151   -4.4848    0.1554 H   0  0  0  0  0  0  0  0  0  0  0  0
    4.7990   -5.4430   -1.3207 H   0  0  0  0  0  0  0  0  0  0  0  0
   -6.2665   -0.5137   -2.4266 H   0  0  0  0  0  0  0  0  0  0  0  0
   -5.2702    1.1738    1.4213 H   0  0  0  0  0  0  0  0  0  0  0  0
    1.9886    6.9651   -0.3690 H   0  0  0  0  0  0  0  0  0  0  0  0
    3.2649    4.9214    3.1888 H   0  0  0  0  0  0  0  0  0  0  0  0
   -3.6005   -3.0789    1.6999 H   0  0  0  0  0  0  0  0  0  0  0  0
   -2.1858   -3.6654    2.6327 H   0  0  0  0  0  0  0  0  0  0  0  0
   -3.6557   -3.1299    3.4749 H   0  0  0  0  0  0  0  0  0  0  0  0
    2.6073    7.0155    2.0329 H   0  0  0  0  0  0  0  0  0  0  0  0
   -8.6286    0.1187   -2.0757 H   0  0  0  0  0  0  0  0  0  0  0  0
   -7.6260    1.7869    1.7551 H   0  0  0  0  0  0  0  0  0  0  0  0
   -9.3139    1.2688    0.0130 H   0  0  0  0  0  0  0  0  0  0  0  0
  1 11  1  0  0  0  0
  1 14  1  0  0  0  0
  2 11  1  0  0  0  0
  2 18  1  0  0  0  0
  3 12  1  0  0  0  0
  3 30  1  0  0  0  0
  4 25  1  0  0  0  0
  4 28  1  0  0  0  0
  5 16  1  0  0  0  0
  5 34  1  0  0  0  0
  6 19  1  0  0  0  0
  6 35  1  0  0  0  0
  7 20  1  0  0  0  0
  7 36  1  0  0  0  0
  8 24  1  0  0  0  0
  8 37  1  0  0  0  0
  9 27  1  0  0  0  0
  9 42  1  0  0  0  0
 10 23  2  0  0  0  0
 11 12  1  0  0  0  0
 11 15  1  0  0  0  0
 12 13  1  0  0  0  0
 12 16  1  0  0  0  0
 13 14  1  0  0  0  0
 13 19  2  0  0  0  0
 14 17  2  0  0  0  0
 15 22  2  0  0  0  0
 15 23  1  0  0  0  0
 16 24  2  0  0  0  0
 17 20  1  0  0  0  0
 17 25  1  0  0  0  0
 18 21  1  0  0  0  0
 18 29  1  0  0  0  0
 18 47  1  0  0  0  0
 19 27  1  0  0  0  0
 20 26  1  0  0  0  0
 20 48  1  0  0  0  0
 21 22  1  0  0  0  0
 21 49  1  0  0  0  0
 21 50  1  0  0  0  0
 22 51  1  0  0  0  0
 23 24  1  0  0  0  0
 25 27  2  0  0  0  0
 26 28  1  0  0  0  0
 26 52  1  0  0  0  0
 26 53  1  0  0  0  0
 28 31  1  0  0  0  0
 28 54  1  0  0  0  0
 29 32  2  0  0  0  0
 29 33  1  0  0  0  0
 30 55  1  0  0  0  0
 30 56  1  0  0  0  0
 30 57  1  0  0  0  0
 31 38  2  0  0  0  0
 31 39  1  0  0  0  0
 32 40  1  0  0  0  0
 32 58  1  0  0  0  0
 33 41  2  0  0  0  0
 33 59  1  0  0  0  0
 34 60  1  0  0  0  0
 34 61  1  0  0  0  0
 34 62  1  0  0  0  0
 35 63  1  0  0  0  0
 35 64  1  0  0  0  0
 35 65  1  0  0  0  0
 36 66  1  0  0  0  0
 36 67  1  0  0  0  0
 36 68  1  0  0  0  0
 37 69  1  0  0  0  0
 37 70  1  0  0  0  0
 37 71  1  0  0  0  0
 38 44  1  0  0  0  0
 38 72  1  0  0  0  0
 39 45  2  0  0  0  0
 39 73  1  0  0  0  0
 40 43  2  0  0  0  0
 40 74  1  0  0  0  0
 41 43  1  0  0  0  0
 41 75  1  0  0  0  0
 42 76  1  0  0  0  0
 42 77  1  0  0  0  0
 42 78  1  0  0  0  0
 43 79  1  0  0  0  0
 44 46  2  0  0  0  0
 44 80  1  0  0  0  0
 45 46  1  0  0  0  0
 45 81  1  0  0  0  0
 46 82  1  0  0  0  0
M  END
> <PUBCHEM_COMPOUND_CID>
10699195

> <PUBCHEM_CONFORMER_RMSD>
1.2

> <PUBCHEM_CONFORMER_DIVERSEORDER>
1
2

> <PUBCHEM_MMFF94_PARTIAL_CHARGES>
56
1 -0.36
10 -0.57
11 0.7
12 0.56
13 -0.14
14 0.08
15 -0.12
16 -0.06
17 -0.14
18 0.42
19 0.08
2 -0.56
20 0.42
21 0.14
22 -0.29
23 0.54
24 0.09
25 0.08
27 0.08
28 0.42
29 -0.14
3 -0.56
30 0.28
31 -0.14
32 -0.15
33 -0.15
34 0.28
35 0.28
36 0.28
37 0.28
38 -0.15
39 -0.15
4 -0.36
40 -0.15
41 -0.15
42 0.28
43 -0.15
44 -0.15
45 -0.15
46 -0.15
5 -0.36
51 0.15
58 0.15
59 0.15
6 -0.36
7 -0.56
72 0.15
73 0.15
74 0.15
75 0.15
79 0.15
8 -0.36
80 0.15
81 0.15
82 0.15
9 -0.36

> <PUBCHEM_EFFECTIVE_ROTOR_COUNT>
9.6

> <PUBCHEM_PHARMACOPHORE_FEATURES>
17
1 1 acceptor
1 10 acceptor
1 2 acceptor
1 3 acceptor
1 4 acceptor
1 5 acceptor
1 6 acceptor
1 7 acceptor
1 8 acceptor
1 9 acceptor
5 1 11 12 13 14 rings
6 11 12 15 16 23 24 rings
6 13 14 17 19 25 27 rings
6 2 11 15 18 21 22 rings
6 29 32 33 40 41 43 rings
6 31 38 39 44 45 46 rings
6 4 17 20 25 26 28 rings

> <PUBCHEM_HEAVY_ATOM_COUNT>
46

> <PUBCHEM_ATOM_DEF_STEREO_COUNT>
5

> <PUBCHEM_ATOM_UDEF_STEREO_COUNT>
0

> <PUBCHEM_BOND_DEF_STEREO_COUNT>
0

> <PUBCHEM_BOND_UDEF_STEREO_COUNT>
0

> <PUBCHEM_ISOTOPIC_ATOM_COUNT>
0

> <PUBCHEM_COMPONENT_COUNT>
1

> <PUBCHEM_CACTVS_TAUTO_COUNT>
3

> <PUBCHEM_CONFORMER_ID>
00A341BB00000001

> <PUBCHEM_MMFF94_ENERGY>
181.3909

> <PUBCHEM_FEATURE_SELFOVERLAP>
86.766

> <PUBCHEM_SHAPE_FINGERPRINT>
10673678 19 18057313105639763673
10721379 63 17203321260415106961
10816530 23 18268427017943539019
11115154 58 18196667193476429453
11456790 92 18040990705138504217
11505856 67 16891746293737684620
11578080 2 18117001185412290593
12107698 1 18272091557092016189
12522641 24 18409454666152897217
12788726 201 17617666453780950758
13383668 362 17386554877299324194
13726171 33 16953679456011279516
14068700 686 17905617949164152235
15082195 135 18201442501757246953
15297060 5 17458638838283912359
15324884 4 17827102867121834930
15439362 3 17913205649244239492
15444296 8 17264435148833795974
19311894 1 17692820289532341701
21033648 29 18047753981708004500
22122407 14 18200610176067070753
22149856 69 16298675963531405325
23559900 14 18041011639098754671
376196 1 18118682355723017992
508180 173 18117282445846631217
6086070 43 18336276716251088490
6695519 79 17695085665774235891
70251023 43 17982739571795662822

> <PUBCHEM_SHAPE_MULTIPOLES>
887.97
13.79
6.73
3.19
36.35
8.46
-0.49
4.54
4.17
-14.01
-2.57
-0.12
-1.36
3.08

> <PUBCHEM_SHAPE_SELFOVERLAP>
1978.925

> <PUBCHEM_SHAPE_VOLUME>
468

> <PUBCHEM_COORDINATE_TYPE>
2
5
10

$$$$