16
 OpenBabel03302012423D

 80 84  0  0  0  0  0  0  0  0999 V2000
    2.8766   -0.0430    0.4181 C   0  0  0  0  0  0  0  0  0  0  0  0
    4.0673    1.0304    0.5527 N   0  0  0  0  0  0  0  0  0  0  0  0
    3.5414    1.5094    1.7145 C   0  0  0  0  0  0  0  0  0  0  0  0
    4.1158    0.5251    2.7196 C   0  0  0  0  0  0  0  0  0  0  0  0
    5.3826    1.1743    2.9833 C   0  0  0  0  0  0  0  0  0  0  0  0
    5.4761    2.8200    2.7817 C   0  0  0  0  0  0  0  0  0  0  0  0
    5.5197    0.8495    4.4267 C   0  0  0  0  0  0  0  0  0  0  0  0
    6.2145    0.6191    1.9063 C   0  0  0  0  0  0  0  0  0  0  0  0
    7.2518   -0.2940    2.0754 C   0  0  0  0  0  0  0  0  0  0  0  0
    8.3265   -0.3817    1.2005 C   0  0  0  0  0  0  0  0  0  0  0  0
    9.2135   -1.5197    1.2705 C   0  0  0  0  0  0  0  0  0  0  0  0
    8.4596   -2.8063    1.4774 C   0  0  0  0  0  0  0  0  0  0  0  0
    7.1608   -2.9512    0.9608 C   0  0  0  0  0  0  0  0  0  0  0  0
    6.6451   -4.2141    1.0500 C   0  0  0  0  0  0  0  0  0  0  0  0
    7.5197   -5.1278    1.6081 C   0  0  0  0  0  0  0  0  0  0  0  0
    7.1958   -6.5615    1.6765 C   0  0  0  0  0  0  0  0  0  0  0  0
    6.0306   -6.8276    1.9283 O   0  0  0  0  0  0  0  0  0  0  0  0
    8.0801   -7.5822    1.3871 N   0  0  0  0  0  0  0  0  0  0  0  0
    7.6379   -8.9709    1.4486 C   0  0  0  0  0  0  0  0  0  0  0  0
    8.5496   -9.7446    2.4019 C   0  0  0  0  0  0  0  0  0  0  0  0
   10.0134   -9.6059    1.9589 C   0  0  0  0  0  0  0  0  0  0  0  0
   10.4088   -8.1235    1.8644 C   0  0  0  0  0  0  0  0  0  0  0  0
    9.4516   -7.3928    0.9172 C   0  0  0  0  0  0  0  0  0  0  0  0
    8.9155   -4.3170    2.0706 S   0  0  0  0  0  0  0  0  0  0  0  0
   10.5956   -1.5266    0.8825 C   0  0  0  0  0  0  0  0  0  0  0  0
   11.3579   -2.7214    0.7991 C   0  0  0  0  0  0  0  0  0  0  0  0
   12.7152   -2.7690    0.5581 C   0  0  0  0  0  0  0  0  0  0  0  0
   13.5355   -1.6065    0.4615 C   0  0  0  0  0  0  0  0  0  0  0  0
   14.8367   -1.7814    0.2881 N   0  3  0  0  0  0  0  0  0  0  0  0
   15.5498   -3.0865    0.2214 C   0  0  0  0  0  0  0  0  0  0  0  0
   15.7923   -0.6792    0.2012 C   0  0  0  0  0  0  0  0  0  0  0  0
   12.7678   -0.2977    0.4543 C   0  0  0  0  0  0  0  0  0  0  0  0
   11.3150   -0.2246    0.5715 C   0  0  0  0  0  0  0  0  0  0  0  0
   10.2278    1.0793    0.1954 S   0  0  0  0  0  0  0  0  0  0  0  0
    8.4798    0.7940    0.4583 C   0  0  0  0  0  0  0  0  0  0  0  0
    7.1462    1.4779    0.0220 C   0  0  0  0  0  0  0  0  0  0  0  0
    5.7852    0.9205    0.6227 C   0  0  0  0  0  0  0  0  0  0  0  0
    2.0905    0.8708   -1.8195 F   0  0  0  0  0  0  0  0  0  0  0  0
    3.6075    0.4371   -2.5234 P   0  5  0  0  0  0  0  0  0  0  0  0
    5.0829    0.0544   -3.2569 F   0  0  0  0  0  0  0  0  0  0  0  0
    4.3105    1.8483   -1.8285 F   0  0  0  0  0  0  0  0  0  0  0  0
    4.3569   -0.5979   -1.3761 F   0  0  0  0  0  0  0  0  0  0  0  0
    2.8273   -0.9725   -3.1075 F   0  0  0  0  0  0  0  0  0  0  0  0
    3.0477    1.3836   -3.8142 F   0  0  0  0  0  0  0  0  0  0  0  0
    2.7144   -0.9530   -0.1985 H   0  0  0  0  0  0  0  0  0  0  0  0
    1.9160    0.5080    0.2499 H   0  0  0  0  0  0  0  0  0  0  0  0
    2.3266   -0.4275    1.3375 H   0  0  0  0  0  0  0  0  0  0  0  0
    2.5314    1.3814    2.1704 H   0  0  0  0  0  0  0  0  0  0  0  0
    3.2962    2.5552    1.5763 H   0  0  0  0  0  0  0  0  0  0  0  0
    4.2824   -0.5434    2.2448 H   0  0  0  0  0  0  0  0  0  0  0  0
    4.2099   -0.6258    2.5497 H   0  0  0  0  0  0  0  0  0  0  0  0
    4.5862    3.3771    3.1565 H   0  0  0  0  0  0  0  0  0  0  0  0
    5.4582    3.1603    1.6943 H   0  0  0  0  0  0  0  0  0  0  0  0
    6.3806    3.3327    3.1391 H   0  0  0  0  0  0  0  0  0  0  0  0
    4.5627    1.2292    4.8973 H   0  0  0  0  0  0  0  0  0  0  0  0
    6.3497    1.4142    4.8469 H   0  0  0  0  0  0  0  0  0  0  0  0
    5.5839   -0.2495    4.5684 H   0  0  0  0  0  0  0  0  0  0  0  0
    7.2379   -0.9688    2.9301 H   0  0  0  0  0  0  0  0  0  0  0  0
    6.6295   -2.1675    0.4307 H   0  0  0  0  0  0  0  0  0  0  0  0
    5.6732   -4.4625    0.6492 H   0  0  0  0  0  0  0  0  0  0  0  0
    7.7001   -9.4120    0.4287 H   0  0  0  0  0  0  0  0  0  0  0  0
    6.5868   -9.0805    1.7892 H   0  0  0  0  0  0  0  0  0  0  0  0
    8.2552  -10.8154    2.4106 H   0  0  0  0  0  0  0  0  0  0  0  0
    8.4307   -9.3326    3.4274 H   0  0  0  0  0  0  0  0  0  0  0  0
   10.1403  -10.0822    0.9615 H   0  0  0  0  0  0  0  0  0  0  0  0
   10.6750  -10.1303    2.6814 H   0  0  0  0  0  0  0  0  0  0  0  0
   11.4535   -8.0390    1.4933 H   0  0  0  0  0  0  0  0  0  0  0  0
   10.3512   -7.6535    2.8696 H   0  0  0  0  0  0  0  0  0  0  0  0
    9.5454   -7.8348   -0.1025 H   0  0  0  0  0  0  0  0  0  0  0  0
    9.7599   -6.3458    0.8095 H   0  0  0  0  0  0  0  0  0  0  0  0
   10.9363   -3.7143    0.8993 H   0  0  0  0  0  0  0  0  0  0  0  0
   13.0839   -3.7592    0.5509 H   0  0  0  0  0  0  0  0  0  0  0  0
   14.9867   -4.0417    0.3150 H   0  0  0  0  0  0  0  0  0  0  0  0
   16.2963   -3.1629    1.0076 H   0  0  0  0  0  0  0  0  0  0  0  0
   16.0717   -3.1844   -0.7575 H   0  0  0  0  0  0  0  0  0  0  0  0
   15.3579    0.3126    0.2882 H   0  0  0  0  0  0  0  0  0  0  0  0
   16.2922   -0.7624   -0.7787 H   0  0  0  0  0  0  0  0  0  0  0  0
   16.5462   -0.7846    1.0008 H   0  0  0  0  0  0  0  0  0  0  0  0
   13.3180    0.6012    0.3410 H   0  0  0  0  0  0  0  0  0  0  0  0
    7.2365    2.3515   -0.6069 H   0  0  0  0  0  0  0  0  0  0  0  0
  1  2  1  0  0  0  0
  1 45  1  0  0  0  0
  1 46  1  0  0  0  0
  1 47  1  0  0  0  0
  2  3  1  0  0  0  0
  2 37  1  0  0  0  0
  3  4  1  0  0  0  0
  3 48  1  0  0  0  0
  3 49  1  0  0  0  0
  4  5  1  0  0  0  0
  4 50  1  0  0  0  0
  4 51  1  0  0  0  0
  5  6  1  0  0  0  0
  5  7  1  0  0  0  0
  5  8  1  0  0  0  0
  6 52  1  0  0  0  0
  6 53  1  0  0  0  0
  6 54  1  0  0  0  0
  7 55  1  0  0  0  0
  7 56  1  0  0  0  0
  7 57  1  0  0  0  0
  8  9  1  0  0  0  0
  8 37  2  0  0  0  0
  9 10  2  0  0  0  0
  9 58  1  0  0  0  0
 10 11  1  0  0  0  0
 10 35  1  0  0  0  0
 11 12  1  0  0  0  0
 11 25  2  0  0  0  0
 12 13  2  0  0  0  0
 12 24  1  0  0  0  0
 13 14  1  0  0  0  0
 13 59  1  0  0  0  0
 14 15  2  0  0  0  0
 14 60  1  0  0  0  0
 15 16  1  0  0  0  0
 15 24  1  0  0  0  0
 16 17  2  0  0  0  0
 16 18  1  0  0  0  0
 18 19  1  0  0  0  0
 18 23  1  0  0  0  0
 19 20  1  0  0  0  0
 19 61  1  0  0  0  0
 19 62  1  0  0  0  0
 20 21  1  0  0  0  0
 20 63  1  0  0  0  0
 20 64  1  0  0  0  0
 21 22  1  0  0  0  0
 21 65  1  0  0  0  0
 21 66  1  0  0  0  0
 22 23  1  0  0  0  0
 22 67  1  0  0  0  0
 22 68  1  0  0  0  0
 23 69  1  0  0  0  0
 23 70  1  0  0  0  0
 25 26  1  0  0  0  0
 25 33  1  0  0  0  0
 26 27  2  0  0  0  0
 26 71  1  0  0  0  0
 27 28  1  0  0  0  0
 27 72  1  0  0  0  0
 28 29  2  0  0  0  0
 28 32  1  0  0  0  0
 29 30  1  0  0  0  0
 29 31  1  0  0  0  0
 30 73  1  0  0  0  0
 30 74  1  0  0  0  0
 30 75  1  0  0  0  0
 31 76  1  0  0  0  0
 31 77  1  0  0  0  0
 31 78  1  0  0  0  0
 32 33  2  0  0  0  0
 32 79  1  0  0  0  0
 33 34  1  0  0  0  0
 34 35  1  0  0  0  0
 35 36  2  0  0  0  0
 36 37  1  0  0  0  0
 36 80  1  0  0  0  0
 38 39  1  0  0  0  0
 39 40  1  0  0  0  0
 39 41  1  0  0  0  0
 39 42  1  0  0  0  0
 39 43  1  0  0  0  0
 39 44  1  0  0  0  0
M  CHG  2  29   1  39  -1
M  END
$$$$