104
 OpenBabel03292021563D

188188  0  0  1  0  0  0  0  0999 V2000
    5.8645   -0.9408    5.4404 C   0  0  0  0  0  0  0  0  0  0  0  0
    7.0790   -0.1552    5.9816 C   0  0  0  0  0  0  0  0  0  0  0  0
    8.4193   -0.5054    5.2906 C   0  0  2  0  0  0  0  0  0  0  0  0
    9.6501   -0.5468    6.3484 N   0  0  0  0  0  0  0  0  0  0  0  0
   10.2296    0.3682    7.2725 C   0  0  0  0  0  0  0  0  0  0  0  0
    9.8798    1.5466    7.3191 O   0  0  0  0  0  0  0  0  0  0  0  0
   11.1800   -0.3147    8.5200 C   0  0  2  0  0  0  0  0  0  0  0  0
   11.9176    0.4675    9.7411 C   0  0  0  0  0  0  0  0  0  0  0  0
   13.4454    0.2784   10.2590 C   0  0  0  0  0  0  0  0  0  0  0  0
   13.6514    0.9918   11.6218 C   0  0  0  0  0  0  0  0  0  0  0  0
   14.0621   -1.1104   10.5317 C   0  0  0  0  0  0  0  0  0  0  0  0
   11.9226   -1.5153    8.2022 N   0  0  0  0  0  0  0  0  0  0  0  0
   13.1370   -1.3483    7.4275 C   0  0  0  0  0  0  0  0  0  0  0  0
   11.6881   -2.6656    8.9868 C   0  0  0  0  0  0  0  0  0  0  0  0
   12.5411   -3.2283    9.6651 O   0  0  0  0  0  0  0  0  0  0  0  0
   10.3945   -3.4024    8.5696 C   0  0  2  0  0  0  0  0  0  0  0  0
    9.2661   -3.5680    9.6093 C   0  0  0  0  0  0  0  0  0  0  0  0
    8.0211   -4.0972    8.8796 C   0  0  0  0  0  0  0  0  0  0  0  0
    8.8759   -2.2767   10.3320 C   0  0  0  0  0  0  0  0  0  0  0  0
   10.9548   -4.6623    7.9950 N   0  0  0  0  0  0  0  0  0  0  0  0
   11.2746   -5.7721    8.8891 C   0  0  0  0  0  0  0  0  0  0  0  0
   11.7104   -4.4490    6.8307 C   0  0  0  0  0  0  0  0  0  0  0  0
   11.5679   -3.3919    6.1966 O   0  0  0  0  0  0  0  0  0  0  0  0
   12.6157   -5.5667    6.2596 C   0  0  2  0  0  0  0  0  0  0  0  0
   14.0981   -5.1699    6.0599 C   0  0  0  0  0  0  0  0  0  0  0  0
   15.0065   -5.1206    7.3104 C   0  0  0  0  0  0  0  0  0  0  0  0
   15.0980   -6.4427    8.0716 C   0  0  0  0  0  0  0  0  0  0  0  0
   16.4273   -4.7130    6.8839 C   0  0  0  0  0  0  0  0  0  0  0  0
   11.9449   -5.8659    4.9655 N   0  0  0  0  0  0  0  0  0  0  0  0
   11.9653   -4.8190    3.9287 C   0  0  0  0  0  0  0  0  0  0  0  0
   10.9161   -6.8060    5.0469 C   0  0  0  0  0  0  0  0  0  0  0  0
   10.7948   -7.5428    6.0339 O   0  0  0  0  0  0  0  0  0  0  0  0
    9.9571   -6.9823    3.8515 C   0  0  2  0  0  0  0  0  0  0  0  0
    8.4799   -6.8769    4.3305 C   0  0  0  0  0  0  0  0  0  0  0  0
    8.0758   -5.5450    5.0060 C   0  0  0  0  0  0  0  0  0  0  0  0
    8.0117   -4.3802    4.0261 C   0  0  0  0  0  0  0  0  0  0  0  0
    6.7029   -5.6907    5.6784 C   0  0  0  0  0  0  0  0  0  0  0  0
   10.2895   -8.2980    3.2161 N   0  0  0  0  0  0  0  0  0  0  0  0
    9.9252   -9.5027    3.9497 C   0  0  0  0  0  0  0  0  0  0  0  0
   11.3918   -8.3141    2.3568 C   0  0  0  0  0  0  0  0  0  0  0  0
   12.0923   -7.3118    2.1920 O   0  0  0  0  0  0  0  0  0  0  0  0
   11.6878   -9.5139    1.4144 C   0  0  1  0  0  0  0  0  0  0  0  0
   11.7148  -10.9101    2.0016 C   0  0  0  0  0  0  0  0  0  0  0  0
   10.8555   -9.4880    0.1940 N   0  0  0  0  0  0  0  0  0  0  0  0
   11.2822   -8.9463   -0.9803 C   0  0  0  0  0  0  0  0  0  0  0  0
   11.1423   -9.6476   -2.0045 O   0  0  0  0  0  0  0  0  0  0  0  0
   11.9007   -7.5389   -1.0342 C   0  0  2  0  0  0  0  0  0  0  0  0
   11.0843   -6.4411   -0.3841 C   0  0  0  0  0  0  0  0  0  0  0  0
   12.3349   -7.1245   -2.3756 N   0  0  0  0  0  0  0  0  0  0  0  0
   11.7062   -6.5661   -3.4414 C   0  0  0  0  0  0  0  0  0  0  0  0
   12.4948   -5.8913   -4.1286 O   0  0  0  0  0  0  0  0  0  0  0  0
   10.2229   -6.8155   -3.9633 C   0  0  1  0  0  0  0  0  0  0  0  0
    9.1578   -7.2653   -2.9562 C   0  0  0  0  0  0  0  0  0  0  0  0
    7.9253   -7.9838   -3.5579 C   0  0  0  0  0  0  0  0  0  0  0  0
    8.2269   -9.4215   -3.9821 C   0  0  0  0  0  0  0  0  0  0  0  0
    6.7967   -7.9793   -2.5206 C   0  0  0  0  0  0  0  0  0  0  0  0
    9.8188   -5.6196   -4.8255 N   0  0  0  0  0  0  0  0  0  0  0  0
   10.6080   -5.4936   -6.0540 C   0  0  0  0  0  0  0  0  0  0  0  0
    8.7436   -4.7639   -4.5286 C   0  0  0  0  0  0  0  0  0  0  0  0
    7.7378   -5.1885   -3.9316 O   0  0  0  0  0  0  0  0  0  0  0  0
    8.8113   -3.1973   -4.7292 C   0  0  1  0  0  0  0  0  0  0  0  0
    9.2812   -2.6889   -6.1243 C   0  0  0  0  0  0  0  0  0  0  0  0
    8.4611   -3.2067   -7.3137 C   0  0  0  0  0  0  0  0  0  0  0  0
    9.3468   -1.1567   -6.1980 C   0  0  0  0  0  0  0  0  0  0  0  0
    7.4882   -2.5529   -4.3712 N   0  0  0  0  0  0  0  0  0  0  0  0
    6.8035   -2.1491   -3.2502 C   0  0  0  0  0  0  0  0  0  0  0  0
    5.7305   -1.5740   -3.5076 O   0  0  0  0  0  0  0  0  0  0  0  0
    7.1228   -2.5276   -1.7339 C   0  0  1  0  0  0  0  0  0  0  0  0
    8.5699   -2.9214   -1.4745 C   0  0  0  0  0  0  0  0  0  0  0  0
    8.8428   -3.3625   -0.0279 C   0  0  0  0  0  0  0  0  0  0  0  0
    8.2364   -4.7267    0.2875 C   0  0  0  0  0  0  0  0  0  0  0  0
   10.3424   -3.2531    0.2154 C   0  0  0  0  0  0  0  0  0  0  0  0
    6.6223   -1.6264   -0.5706 N   0  0  0  0  0  0  0  0  0  0  0  0
    5.1789   -1.4525   -0.5622 C   0  0  0  0  0  0  0  0  0  0  0  0
    7.3516   -0.4501   -0.2923 C   0  0  0  0  0  0  0  0  0  0  0  0
    7.7815    0.2018   -1.2575 O   0  0  0  0  0  0  0  0  0  0  0  0
    8.0093   -0.1336    1.1935 C   0  0  0  0  0  0  0  0  0  0  0  0
    7.5691   -0.1239    2.6571 N   0  0  0  0  0  0  0  0  0  0  0  0
    6.4028    0.7251    2.8519 C   0  0  0  0  0  0  0  0  0  0  0  0
    8.6304   -0.1035    3.6720 C   0  0  0  0  0  0  0  0  0  0  0  0
    9.8086   -0.0001    3.2810 O   0  0  0  0  0  0  0  0  0  0  0  0
    6.0789   -1.4803    4.5126 H   0  0  0  0  0  0  0  0  0  0  0  0
    5.0169   -0.2707    5.2487 H   0  0  0  0  0  0  0  0  0  0  0  0
    5.5130   -1.6815    6.1667 H   0  0  0  0  0  0  0  0  0  0  0  0
    7.1413   -0.3934    7.0512 H   0  0  0  0  0  0  0  0  0  0  0  0
    6.8849    0.9210    5.9276 H   0  0  0  0  0  0  0  0  0  0  0  0
    8.3430   -1.5917    5.1628 H   0  0  0  0  0  0  0  0  0  0  0  0
   10.1823   -1.4088    6.2698 H   0  0  0  0  0  0  0  0  0  0  0  0
   10.3168   -0.6802    9.0797 H   0  0  0  0  0  0  0  0  0  0  0  0
   11.7686    1.5412    9.5881 H   0  0  0  0  0  0  0  0  0  0  0  0
   11.3244    0.2185   10.6360 H   0  0  0  0  0  0  0  0  0  0  0  0
   14.0977    0.7856    9.5388 H   0  0  0  0  0  0  0  0  0  0  0  0
   13.1442    0.4492   12.4312 H   0  0  0  0  0  0  0  0  0  0  0  0
   13.2986    2.0225   11.6115 H   0  0  0  0  0  0  0  0  0  0  0  0
   14.7193    1.0112   11.8894 H   0  0  0  0  0  0  0  0  0  0  0  0
   13.4585   -1.6956   11.2330 H   0  0  0  0  0  0  0  0  0  0  0  0
   15.0538   -1.0177   11.0025 H   0  0  0  0  0  0  0  0  0  0  0  0
   14.2739   -1.6852    9.6338 H   0  0  0  0  0  0  0  0  0  0  0  0
   13.7565   -0.5437    7.8228 H   0  0  0  0  0  0  0  0  0  0  0  0
   12.8686   -1.0791    6.4017 H   0  0  0  0  0  0  0  0  0  0  0  0
   13.7191   -2.2736    7.4199 H   0  0  0  0  0  0  0  0  0  0  0  0
    9.9551   -2.8527    7.7343 H   0  0  0  0  0  0  0  0  0  0  0  0
    9.5433   -4.2723   10.3969 H   0  0  0  0  0  0  0  0  0  0  0  0
    7.7397   -3.4283    8.0558 H   0  0  0  0  0  0  0  0  0  0  0  0
    7.1622   -4.1675    9.5535 H   0  0  0  0  0  0  0  0  0  0  0  0
    8.2042   -5.0895    8.4580 H   0  0  0  0  0  0  0  0  0  0  0  0
    8.5018   -1.5207    9.6340 H   0  0  0  0  0  0  0  0  0  0  0  0
    9.7191   -1.8675   10.8972 H   0  0  0  0  0  0  0  0  0  0  0  0
    8.0714   -2.4662   11.0513 H   0  0  0  0  0  0  0  0  0  0  0  0
   10.6838   -5.7578    9.8024 H   0  0  0  0  0  0  0  0  0  0  0  0
   12.3311   -5.7342    9.1588 H   0  0  0  0  0  0  0  0  0  0  0  0
   11.0613   -6.7148    8.3841 H   0  0  0  0  0  0  0  0  0  0  0  0
   12.5927   -6.4604    6.8802 H   0  0  0  0  0  0  0  0  0  0  0  0
   14.5437   -5.8786    5.3473 H   0  0  0  0  0  0  0  0  0  0  0  0
   14.1594   -4.1815    5.5898 H   0  0  0  0  0  0  0  0  0  0  0  0
   14.6259   -4.3544    7.9944 H   0  0  0  0  0  0  0  0  0  0  0  0
   15.4653   -7.2500    7.4301 H   0  0  0  0  0  0  0  0  0  0  0  0
   14.1345   -6.7478    8.4808 H   0  0  0  0  0  0  0  0  0  0  0  0
   15.7885   -6.3474    8.9185 H   0  0  0  0  0  0  0  0  0  0  0  0
   16.8789   -5.4747    6.2367 H   0  0  0  0  0  0  0  0  0  0  0  0
   17.0794   -4.5898    7.7556 H   0  0  0  0  0  0  0  0  0  0  0  0
   16.4223   -3.7660    6.3347 H   0  0  0  0  0  0  0  0  0  0  0  0
   12.8784   -4.2245    3.9703 H   0  0  0  0  0  0  0  0  0  0  0  0
   11.1002   -4.1648    4.0569 H   0  0  0  0  0  0  0  0  0  0  0  0
   11.9061   -5.2318    2.9278 H   0  0  0  0  0  0  0  0  0  0  0  0
   10.1022   -6.2116    3.0946 H   0  0  0  0  0  0  0  0  0  0  0  0
    7.8187   -7.0661    3.4741 H   0  0  0  0  0  0  0  0  0  0  0  0
    8.2616   -7.6633    5.0589 H   0  0  0  0  0  0  0  0  0  0  0  0
    8.7983   -5.3005    5.7936 H   0  0  0  0  0  0  0  0  0  0  0  0
    7.2606   -4.5513    3.2495 H   0  0  0  0  0  0  0  0  0  0  0  0
    8.9717   -4.1952    3.5431 H   0  0  0  0  0  0  0  0  0  0  0  0
    7.7256   -3.4694    4.5548 H   0  0  0  0  0  0  0  0  0  0  0  0
    5.9234   -5.9185    4.9433 H   0  0  0  0  0  0  0  0  0  0  0  0
    6.4186   -4.7648    6.1915 H   0  0  0  0  0  0  0  0  0  0  0  0
    6.7123   -6.4916    6.4248 H   0  0  0  0  0  0  0  0  0  0  0  0
    9.3421   -9.2982    4.8464 H   0  0  0  0  0  0  0  0  0  0  0  0
   10.8304  -10.0158    4.2832 H   0  0  0  0  0  0  0  0  0  0  0  0
    9.3240  -10.1387    3.2998 H   0  0  0  0  0  0  0  0  0  0  0  0
   12.7176   -9.3373    1.0782 H   0  0  0  0  0  0  0  0  0  0  0  0
   10.7144  -11.3060    2.1904 H   0  0  0  0  0  0  0  0  0  0  0  0
   12.3023  -10.9479    2.9263 H   0  0  0  0  0  0  0  0  0  0  0  0
   12.1798  -11.6063    1.2899 H   0  0  0  0  0  0  0  0  0  0  0  0
   10.4027  -10.3717    0.0067 H   0  0  0  0  0  0  0  0  0  0  0  0
   12.8402   -7.6333   -0.4738 H   0  0  0  0  0  0  0  0  0  0  0  0
   10.5461   -5.8509   -1.1263 H   0  0  0  0  0  0  0  0  0  0  0  0
   11.7538   -5.7385    0.1252 H   0  0  0  0  0  0  0  0  0  0  0  0
   10.3549   -6.8095    0.3369 H   0  0  0  0  0  0  0  0  0  0  0  0
   13.3007   -6.8157   -2.3965 H   0  0  0  0  0  0  0  0  0  0  0  0
   10.3482   -7.6494   -4.6662 H   0  0  0  0  0  0  0  0  0  0  0  0
    8.8425   -6.4053   -2.3646 H   0  0  0  0  0  0  0  0  0  0  0  0
    9.5693   -7.9475   -2.2288 H   0  0  0  0  0  0  0  0  0  0  0  0
    7.5724   -7.4578   -4.4506 H   0  0  0  0  0  0  0  0  0  0  0  0
    8.5467  -10.0314   -3.1314 H   0  0  0  0  0  0  0  0  0  0  0  0
    9.0084   -9.4596   -4.7460 H   0  0  0  0  0  0  0  0  0  0  0  0
    7.3305   -9.8866   -4.4080 H   0  0  0  0  0  0  0  0  0  0  0  0
    7.0815   -8.5432   -1.6256 H   0  0  0  0  0  0  0  0  0  0  0  0
    5.8851   -8.4239   -2.9311 H   0  0  0  0  0  0  0  0  0  0  0  0
    6.5555   -6.9572   -2.2081 H   0  0  0  0  0  0  0  0  0  0  0  0
   11.1165   -6.4360   -6.2848 H   0  0  0  0  0  0  0  0  0  0  0  0
   11.3606   -4.7124   -5.9418 H   0  0  0  0  0  0  0  0  0  0  0  0
    9.9609   -5.2896   -6.9046 H   0  0  0  0  0  0  0  0  0  0  0  0
    9.5321   -2.8350   -3.9902 H   0  0  0  0  0  0  0  0  0  0  0  0
   10.3137   -3.0128   -6.2675 H   0  0  0  0  0  0  0  0  0  0  0  0
    7.5370   -2.6403   -7.4570 H   0  0  0  0  0  0  0  0  0  0  0  0
    8.1849   -4.2590   -7.2122 H   0  0  0  0  0  0  0  0  0  0  0  0
    9.0508   -3.1115   -8.2351 H   0  0  0  0  0  0  0  0  0  0  0  0
    8.3484   -0.7099   -6.2385 H   0  0  0  0  0  0  0  0  0  0  0  0
    9.8836   -0.8441   -7.1017 H   0  0  0  0  0  0  0  0  0  0  0  0
    9.8779   -0.7434   -5.3355 H   0  0  0  0  0  0  0  0  0  0  0  0
    6.9152   -2.3399   -5.1812 H   0  0  0  0  0  0  0  0  0  0  0  0
    6.5317   -3.4488   -1.6094 H   0  0  0  0  0  0  0  0  0  0  0  0
    9.2146   -2.0771   -1.7524 H   0  0  0  0  0  0  0  0  0  0  0  0
    8.8529   -3.7512   -2.1222 H   0  0  0  0  0  0  0  0  0  0  0  0
    8.3788   -2.6901    0.6914 H   0  0  0  0  0  0  0  0  0  0  0  0
    8.4757   -5.4752   -0.4650 H   0  0  0  0  0  0  0  0  0  0  0  0
    7.1430   -4.6612    0.3319 H   0  0  0  0  0  0  0  0  0  0  0  0
    8.5803   -5.0942    1.2569 H   0  0  0  0  0  0  0  0  0  0  0  0
   10.9170   -3.7343   -0.5760 H   0  0  0  0  0  0  0  0  0  0  0  0
   10.6228   -3.6784    1.1832 H   0  0  0  0  0  0  0  0  0  0  0  0
   10.6390   -2.1983    0.2166 H   0  0  0  0  0  0  0  0  0  0  0  0
    4.6797   -2.4113   -0.7438 H   0  0  0  0  0  0  0  0  0  0  0  0
    4.8773   -0.7312   -1.3289 H   0  0  0  0  0  0  0  0  0  0  0  0
    4.8627   -1.0665    0.4093 H   0  0  0  0  0  0  0  0  0  0  0  0
    8.3426    0.9065    1.0529 H   0  0  0  0  0  0  0  0  0  0  0  0
    8.9291   -0.7238    1.1771 H   0  0  0  0  0  0  0  0  0  0  0  0
    6.5282    1.6494    2.2741 H   0  0  0  0  0  0  0  0  0  0  0  0
    6.2688    1.0421    3.8804 H   0  0  0  0  0  0  0  0  0  0  0  0
    5.5098    0.2077    2.4864 H   0  0  0  0  0  0  0  0  0  0  0  0
  1  2  1  0  0  0  0
  1 82  1  0  0  0  0
  1 83  1  0  0  0  0
  1 84  1  0  0  0  0
  2  3  1  0  0  0  0
  2 85  1  0  0  0  0
  2 86  1  0  0  0  0
  3  4  1  0  0  0  0
  3 80  1  0  0  0  0
  3 87  1  6  0  0  0
  4  5  1  0  0  0  0
  4 88  1  0  0  0  0
  5  6  2  0  0  0  0
  5  7  1  0  0  0  0
  7 12  1  0  0  0  0
  7  8  1  0  0  0  0
  7 89  1  1  0  0  0
  8  9  1  0  0  0  0
  8 90  1  0  0  0  0
  8 91  1  0  0  0  0
  9 10  1  0  0  0  0
  9 11  1  0  0  0  0
  9 92  1  0  0  0  0
 10 93  1  0  0  0  0
 10 94  1  0  0  0  0
 10 95  1  0  0  0  0
 11 96  1  0  0  0  0
 11 97  1  0  0  0  0
 11 98  1  0  0  0  0
 12 13  1  0  0  0  0
 12 14  1  0  0  0  0
 13 99  1  0  0  0  0
 13100  1  0  0  0  0
 13101  1  0  0  0  0
 14 15  2  0  0  0  0
 14 16  1  0  0  0  0
 16 20  1  0  0  0  0
 16 17  1  0  0  0  0
 16102  1  6  0  0  0
 17 18  1  0  0  0  0
 17 19  1  0  0  0  0
 17103  1  0  0  0  0
 18104  1  0  0  0  0
 18105  1  0  0  0  0
 18106  1  0  0  0  0
 19107  1  0  0  0  0
 19108  1  0  0  0  0
 19109  1  0  0  0  0
 20 21  1  0  0  0  0
 20 22  1  0  0  0  0
 21110  1  0  0  0  0
 21111  1  0  0  0  0
 21112  1  0  0  0  0
 22 23  2  0  0  0  0
 22 24  1  0  0  0  0
 24 29  1  0  0  0  0
 24 25  1  0  0  0  0
 24113  1  1  0  0  0
 25 26  1  0  0  0  0
 25114  1  0  0  0  0
 25115  1  0  0  0  0
 26 27  1  0  0  0  0
 26 28  1  0  0  0  0
 26116  1  0  0  0  0
 27117  1  0  0  0  0
 27118  1  0  0  0  0
 27119  1  0  0  0  0
 28120  1  0  0  0  0
 28121  1  0  0  0  0
 28122  1  0  0  0  0
 29 30  1  0  0  0  0
 29 31  1  0  0  0  0
 30123  1  0  0  0  0
 30124  1  0  0  0  0
 30125  1  0  0  0  0
 31 32  2  0  0  0  0
 31 33  1  0  0  0  0
 33 38  1  0  0  0  0
 33 34  1  0  0  0  0
 33126  1  6  0  0  0
 34 35  1  0  0  0  0
 34127  1  0  0  0  0
 34128  1  0  0  0  0
 35 36  1  0  0  0  0
 35 37  1  0  0  0  0
 35129  1  0  0  0  0
 36130  1  0  0  0  0
 36131  1  0  0  0  0
 36132  1  0  0  0  0
 37133  1  0  0  0  0
 37134  1  0  0  0  0
 37135  1  0  0  0  0
 38 39  1  0  0  0  0
 38 40  1  0  0  0  0
 39136  1  0  0  0  0
 39137  1  0  0  0  0
 39138  1  0  0  0  0
 40 41  2  0  0  0  0
 40 42  1  0  0  0  0
 42 43  1  0  0  0  0
 42 44  1  0  0  0  0
 42139  1  6  0  0  0
 43140  1  0  0  0  0
 43141  1  0  0  0  0
 43142  1  0  0  0  0
 44 45  1  0  0  0  0
 44143  1  0  0  0  0
 45 46  2  0  0  0  0
 45 47  1  0  0  0  0
 47 49  1  0  0  0  0
 47 48  1  0  0  0  0
 47144  1  1  0  0  0
 48145  1  0  0  0  0
 48146  1  0  0  0  0
 48147  1  0  0  0  0
 49 50  1  0  0  0  0
 49148  1  0  0  0  0
 50 51  2  0  0  0  0
 50 52  1  0  0  0  0
 52 53  1  0  0  0  0
 52 57  1  0  0  0  0
 52149  1  6  0  0  0
 53 54  1  0  0  0  0
 53150  1  0  0  0  0
 53151  1  0  0  0  0
 54 55  1  0  0  0  0
 54 56  1  0  0  0  0
 54152  1  0  0  0  0
 55153  1  0  0  0  0
 55154  1  0  0  0  0
 55155  1  0  0  0  0
 56156  1  0  0  0  0
 56157  1  0  0  0  0
 56158  1  0  0  0  0
 57 58  1  0  0  0  0
 57 59  1  0  0  0  0
 58159  1  0  0  0  0
 58160  1  0  0  0  0
 58161  1  0  0  0  0
 59 60  2  0  0  0  0
 59 61  1  0  0  0  0
 61 62  1  0  0  0  0
 61 65  1  0  0  0  0
 61162  1  1  0  0  0
 62 63  1  0  0  0  0
 62 64  1  0  0  0  0
 62163  1  0  0  0  0
 63164  1  0  0  0  0
 63165  1  0  0  0  0
 63166  1  0  0  0  0
 64167  1  0  0  0  0
 64168  1  0  0  0  0
 64169  1  0  0  0  0
 65 66  1  0  0  0  0
 65170  1  0  0  0  0
 66 67  2  0  0  0  0
 66 68  1  0  0  0  0
 68 69  1  0  0  0  0
 68 73  1  0  0  0  0
 68171  1  1  0  0  0
 69 70  1  0  0  0  0
 69172  1  0  0  0  0
 69173  1  0  0  0  0
 70 71  1  0  0  0  0
 70 72  1  0  0  0  0
 70174  1  0  0  0  0
 71175  1  0  0  0  0
 71176  1  0  0  0  0
 71177  1  0  0  0  0
 72178  1  0  0  0  0
 72179  1  0  0  0  0
 72180  1  0  0  0  0
 73 74  1  0  0  0  0
 73 75  1  0  0  0  0
 74181  1  0  0  0  0
 74182  1  0  0  0  0
 74183  1  0  0  0  0
 75 76  2  0  0  0  0
 75 77  1  0  0  0  0
 77 78  1  0  0  0  0
 77184  1  0  0  0  0
 77185  1  0  0  0  0
 78 79  1  0  0  0  0
 78 80  1  0  0  0  0
 79186  1  0  0  0  0
 79187  1  0  0  0  0
 79188  1  0  0  0  0
 80 81  2  0  0  0  0
M  END
>  <Energy>
482.509

$$$$