21138
  -OEChem-03242010103D

 40 41  0     1  0  0  0  0  0999 V2000
   -0.4094    1.4781    0.6794 O   0  0  0  0  0  0  0  0  0  0  0  0
   -2.8054    2.0272    1.9794 O   0  0  0  0  0  0  0  0  0  0  0  0
   -2.9712   -0.4984   -0.7232 N   0  0  0  0  0  0  0  0  0  0  0  0
   -2.8081    1.5763    0.6219 C   0  0  2  0  0  0  0  0  0  0  0  0
   -2.9942    0.0572    0.6231 C   0  0  0  0  0  0  0  0  0  0  0  0
   -3.0934   -1.9495   -0.6899 C   0  0  0  0  0  0  0  0  0  0  0  0
   -1.5086    2.0259   -0.0424 C   0  0  0  0  0  0  0  0  0  0  0  0
   -1.9450   -2.5590    0.1092 C   0  0  0  0  0  0  0  0  0  0  0  0
   -3.1160   -2.4900   -2.1162 C   0  0  0  0  0  0  0  0  0  0  0  0
    0.7215    1.1997   -0.0344 C   0  0  0  0  0  0  0  0  0  0  0  0
    1.5850    0.1579    0.3415 C   0  0  0  0  0  0  0  0  0  0  0  0
    2.7452   -0.0914   -0.4297 C   0  0  0  0  0  0  0  0  0  0  0  0
    0.9980    1.9848   -1.1540 C   0  0  0  0  0  0  0  0  0  0  0  0
    1.3224   -0.6422    1.4656 C   0  0  0  0  0  0  0  0  0  0  0  0
    3.0077    0.7084   -1.5539 C   0  0  0  0  0  0  0  0  0  0  0  0
    2.1387    1.7394   -1.9126 C   0  0  0  0  0  0  0  0  0  0  0  0
    3.6087   -1.1333   -0.0541 C   0  0  0  0  0  0  0  0  0  0  0  0
    2.1916   -1.6730    1.8243 C   0  0  0  0  0  0  0  0  0  0  0  0
    3.3326   -1.9180    1.0659 C   0  0  0  0  0  0  0  0  0  0  0  0
   -3.6526    2.0583    0.1152 H   0  0  0  0  0  0  0  0  0  0  0  0
   -3.9443   -0.1830    1.1181 H   0  0  0  0  0  0  0  0  0  0  0  0
   -2.2071   -0.3543    1.2628 H   0  0  0  0  0  0  0  0  0  0  0  0
   -4.0424   -2.2329   -0.2168 H   0  0  0  0  0  0  0  0  0  0  0  0
   -3.7284   -0.0954   -1.2743 H   0  0  0  0  0  0  0  0  0  0  0  0
   -1.4359    3.1187    0.0131 H   0  0  0  0  0  0  0  0  0  0  0  0
   -1.5274    1.7155   -1.0941 H   0  0  0  0  0  0  0  0  0  0  0  0
   -1.9080   -3.6435   -0.0485 H   0  0  0  0  0  0  0  0  0  0  0  0
   -0.9744   -2.1563   -0.2019 H   0  0  0  0  0  0  0  0  0  0  0  0
   -2.0581   -2.4163    1.1882 H   0  0  0  0  0  0  0  0  0  0  0  0
   -3.9515   -2.0670   -2.6853 H   0  0  0  0  0  0  0  0  0  0  0  0
   -3.2347   -3.5790   -2.1167 H   0  0  0  0  0  0  0  0  0  0  0  0
   -2.1884   -2.2531   -2.6497 H   0  0  0  0  0  0  0  0  0  0  0  0
   -3.6571    1.7731    2.3740 H   0  0  0  0  0  0  0  0  0  0  0  0
    0.3761    2.8230   -1.4535 H   0  0  0  0  0  0  0  0  0  0  0  0
    0.4391   -0.4781    2.0788 H   0  0  0  0  0  0  0  0  0  0  0  0
    3.8946    0.5359   -2.1601 H   0  0  0  0  0  0  0  0  0  0  0  0
    2.3587    2.3559   -2.7793 H   0  0  0  0  0  0  0  0  0  0  0  0
    4.5062   -1.3430   -0.6323 H   0  0  0  0  0  0  0  0  0  0  0  0
    1.9767   -2.2849    2.6956 H   0  0  0  0  0  0  0  0  0  0  0  0
    4.0085   -2.7209    1.3456 H   0  0  0  0  0  0  0  0  0  0  0  0
  1  7  1  0  0  0  0
  1 10  1  0  0  0  0
  2  4  1  0  0  0  0
  2 33  1  0  0  0  0
  3  5  1  0  0  0  0
  3  6  1  0  0  0  0
  3 24  1  0  0  0  0
  4  5  1  0  0  0  0
  4  7  1  0  0  0  0
  4 20  1  0  0  0  0
  5 21  1  0  0  0  0
  5 22  1  0  0  0  0
  6  8  1  0  0  0  0
  6  9  1  0  0  0  0
  6 23  1  0  0  0  0
  7 25  1  0  0  0  0
  7 26  1  0  0  0  0
  8 27  1  0  0  0  0
  8 28  1  0  0  0  0
  8 29  1  0  0  0  0
  9 30  1  0  0  0  0
  9 31  1  0  0  0  0
  9 32  1  0  0  0  0
 10 11  1  0  0  0  0
 10 13  2  0  0  0  0
 11 12  1  0  0  0  0
 11 14  2  0  0  0  0
 12 15  1  0  0  0  0
 12 17  2  0  0  0  0
 13 16  1  0  0  0  0
 13 34  1  0  0  0  0
 14 18  1  0  0  0  0
 14 35  1  0  0  0  0
 15 16  2  0  0  0  0
 15 36  1  0  0  0  0
 16 37  1  0  0  0  0
 17 19  1  0  0  0  0
 17 38  1  0  0  0  0
 18 19  2  0  0  0  0
 18 39  1  0  0  0  0
 19 40  1  0  0  0  0
M  END
> <PUBCHEM_COMPOUND_CID>
21138

> <PUBCHEM_CONFORMER_RMSD>
0.8

> <PUBCHEM_CONFORMER_DIVERSEORDER>
3
70
7
88
71
58
32
92
91
43
23
76
69
17
65
55
94
39
102
80
79
33
72
60
48
64
86
82
77
84
95
8
62
41
101
2
24
53
89
44
49
13
42
5
19
75
25
81
85
9
20
35
83
27
96
38
47
73
45
26
46
74
61
36
28
87
16
22
34
21
99
63
97
6
57
18
52
12
11
50
98
30
66
54
31
51
68
37
90
1
56
67
100
14
103
40
78
10
29
59
15
93
4

> <PUBCHEM_MMFF94_PARTIAL_CHARGES>
24
1 -0.36
10 0.08
13 -0.15
14 -0.15
15 -0.15
16 -0.15
17 -0.15
18 -0.15
19 -0.15
2 -0.68
24 0.36
3 -0.9
33 0.4
34 0.15
35 0.15
36 0.15
37 0.15
38 0.15
39 0.15
4 0.28
40 0.15
5 0.27
6 0.27
7 0.28

> <PUBCHEM_EFFECTIVE_ROTOR_COUNT>
6

> <PUBCHEM_PHARMACOPHORE_FEATURES>
8
1 1 acceptor
1 2 acceptor
1 2 donor
1 3 cation
1 3 donor
3 6 8 9 hydrophobe
6 10 11 12 13 15 16 rings
6 11 12 14 17 18 19 rings

> <PUBCHEM_HEAVY_ATOM_COUNT>
19

> <PUBCHEM_ATOM_DEF_STEREO_COUNT>
1

> <PUBCHEM_ATOM_UDEF_STEREO_COUNT>
0

> <PUBCHEM_BOND_DEF_STEREO_COUNT>
0

> <PUBCHEM_BOND_UDEF_STEREO_COUNT>
0

> <PUBCHEM_ISOTOPIC_ATOM_COUNT>
0

> <PUBCHEM_COMPONENT_COUNT>
1

> <PUBCHEM_CACTVS_TAUTO_COUNT>
1

> <PUBCHEM_CONFORMER_ID>
0000529200000003

> <PUBCHEM_MMFF94_ENERGY>
47.9883

> <PUBCHEM_FEATURE_SELFOVERLAP>
40.625

> <PUBCHEM_SHAPE_FINGERPRINT>
11244481 83 17488733605534232224
11578080 2 18191841518673814340
11582403 64 13019574212692682161
11725454 13 15359937355865377324
12202030 40 16702038490205043719
12363563 72 17630590418481099239
12400797 292 18187368782822798894
12403259 327 17272832230819763330
12553582 1 18407758140273393627
12788726 201 18201170939833996401
13009979 54 18411131424820678802
14787075 74 18126282193449281264
15003188 105 16973049655352511223
16752209 62 18343579625802612197
18981168 100 12974151952951458197
20291156 8 18339639057369252687
20600515 1 17702663229187808824
21315764 21 17461124821532823719
21634736 98 18261399974505095854
21639500 275 17386017199302905300
21731516 1 18409443717516056615
22112679 90 18409732824628806588
23184049 29 18129934697776900817
232386 152 18272364261191126537
23402539 116 17460314357278047690
23419403 2 17042533090705300545
23598288 3 18337969917361765233
23598291 2 18188505574571869645
23728640 28 18272653394690677051
238 59 17096072727183084927
568465 68 15625680352543613308
602551 16 17846498097664239098
6992083 37 18263641753854046553
90525 40 18118972386427841929

> <PUBCHEM_SHAPE_MULTIPOLES>
374.29
6.67
3.08
1.89
1.52
0.47
-0.25
2.85
-0.92
1.24
-0.26
0.32
0.11
-3.29

> <PUBCHEM_SHAPE_SELFOVERLAP>
781.676

> <PUBCHEM_SHAPE_VOLUME>
214.2

> <PUBCHEM_COORDINATE_TYPE>
2
5
10

$$$$