44565423
  -OEChem-03242010103D

 63 66  0     1  0  0  0  0  0999 V2000
    8.2496   -2.5362    0.4326 O   0  0  0  0  0  0  0  0  0  0  0  0
    9.7384   -0.2698   -0.1700 O   0  0  0  0  0  0  0  0  0  0  0  0
   -4.6832   -1.4876   -0.2591 O   0  0  0  0  0  0  0  0  0  0  0  0
    3.5278    1.3293   -0.0252 N   0  0  2  0  0  0  0  0  0  0  0  0
   -4.2729    0.7003    0.5029 N   0  0  0  0  0  0  0  0  0  0  0  0
    4.1535    2.1977   -1.0299 C   0  0  0  0  0  0  0  0  0  0  0  0
    4.0689   -0.0377   -0.1258 C   0  0  0  0  0  0  0  0  0  0  0  0
    5.6443    2.3643   -0.7184 C   0  0  0  0  0  0  0  0  0  0  0  0
    5.5797   -0.0857   -0.1100 C   0  0  0  0  0  0  0  0  0  0  0  0
    6.3334    1.0542   -0.4380 C   0  0  0  0  0  0  0  0  0  0  0  0
    2.0742    1.3144   -0.1851 C   0  0  0  0  0  0  0  0  0  0  0  0
    1.3862    0.8555    1.1009 C   0  0  0  0  0  0  0  0  0  0  0  0
    6.2374   -1.2912    0.1703 C   0  0  0  0  0  0  0  0  0  0  0  0
    7.7325    0.9819   -0.4446 C   0  0  0  0  0  0  0  0  0  0  0  0
    7.6306   -1.3556    0.1516 C   0  0  0  0  0  0  0  0  0  0  0  0
    8.3772   -0.2199   -0.1533 C   0  0  0  0  0  0  0  0  0  0  0  0
   -0.1128    0.8144    0.9425 C   0  0  0  0  0  0  0  0  0  0  0  0
   -0.8769    1.9427    1.2409 C   0  0  0  0  0  0  0  0  0  0  0  0
   -0.7355   -0.3518    0.4977 C   0  0  0  0  0  0  0  0  0  0  0  0
   -2.2634    1.9048    1.0944 C   0  0  0  0  0  0  0  0  0  0  0  0
   -2.1219   -0.3898    0.3512 C   0  0  0  0  0  0  0  0  0  0  0  0
   -2.8860    0.7384    0.6495 C   0  0  0  0  0  0  0  0  0  0  0  0
    7.4125   -3.6509    0.7344 C   0  0  0  0  0  0  0  0  0  0  0  0
   10.3592   -0.6066   -1.4093 C   0  0  0  0  0  0  0  0  0  0  0  0
   -5.0669   -0.3721    0.0725 C   0  0  0  0  0  0  0  0  0  0  0  0
   -6.5175   -0.0108    0.0514 C   0  0  0  0  0  0  0  0  0  0  0  0
   -7.4299   -0.9151   -0.3350 C   0  0  0  0  0  0  0  0  0  0  0  0
   -8.8819   -0.6691   -0.3846 C   0  0  0  0  0  0  0  0  0  0  0  0
   -9.3668    0.6381   -0.4275 C   0  0  0  0  0  0  0  0  0  0  0  0
   -9.7715   -1.7433   -0.3886 C   0  0  0  0  0  0  0  0  0  0  0  0
  -10.7414    0.8711   -0.4745 C   0  0  0  0  0  0  0  0  0  0  0  0
  -11.1460   -1.5106   -0.4355 C   0  0  0  0  0  0  0  0  0  0  0  0
  -11.6309   -0.2033   -0.4784 C   0  0  0  0  0  0  0  0  0  0  0  0
    4.0184    1.7857   -2.0393 H   0  0  0  0  0  0  0  0  0  0  0  0
    3.6975    3.1954   -1.0229 H   0  0  0  0  0  0  0  0  0  0  0  0
    3.7129   -0.6325    0.7225 H   0  0  0  0  0  0  0  0  0  0  0  0
    3.7312   -0.5264   -1.0497 H   0  0  0  0  0  0  0  0  0  0  0  0
    6.1280    2.8648   -1.5657 H   0  0  0  0  0  0  0  0  0  0  0  0
    5.7640    3.0072    0.1631 H   0  0  0  0  0  0  0  0  0  0  0  0
    1.7682    0.7013   -1.0435 H   0  0  0  0  0  0  0  0  0  0  0  0
    1.7149    2.3307   -0.3985 H   0  0  0  0  0  0  0  0  0  0  0  0
    1.7241   -0.1413    1.4076 H   0  0  0  0  0  0  0  0  0  0  0  0
    1.6476    1.5254    1.9309 H   0  0  0  0  0  0  0  0  0  0  0  0
    5.6041   -2.1436    0.3937 H   0  0  0  0  0  0  0  0  0  0  0  0
    8.3202    1.8671   -0.6771 H   0  0  0  0  0  0  0  0  0  0  0  0
   -0.4029    2.8576    1.5865 H   0  0  0  0  0  0  0  0  0  0  0  0
   -0.1494   -1.2359    0.2604 H   0  0  0  0  0  0  0  0  0  0  0  0
   -2.8462    2.7916    1.3301 H   0  0  0  0  0  0  0  0  0  0  0  0
   -2.5294   -1.3280    0.0018 H   0  0  0  0  0  0  0  0  0  0  0  0
    8.0709   -4.5029    0.9339 H   0  0  0  0  0  0  0  0  0  0  0  0
    6.7856   -3.9282   -0.1199 H   0  0  0  0  0  0  0  0  0  0  0  0
    6.8277   -3.4823    1.6452 H   0  0  0  0  0  0  0  0  0  0  0  0
   10.0457   -1.6018   -1.7398 H   0  0  0  0  0  0  0  0  0  0  0  0
   11.4423   -0.6131   -1.2593 H   0  0  0  0  0  0  0  0  0  0  0  0
   10.1162    0.1376   -2.1744 H   0  0  0  0  0  0  0  0  0  0  0  0
   -4.7500    1.5670    0.7425 H   0  0  0  0  0  0  0  0  0  0  0  0
   -6.7825    0.9878    0.3786 H   0  0  0  0  0  0  0  0  0  0  0  0
   -7.1210   -1.9152   -0.6299 H   0  0  0  0  0  0  0  0  0  0  0  0
   -8.7125    1.5046   -0.4474 H   0  0  0  0  0  0  0  0  0  0  0  0
   -9.4117   -2.7688   -0.3543 H   0  0  0  0  0  0  0  0  0  0  0  0
  -11.1195    1.8886   -0.5128 H   0  0  0  0  0  0  0  0  0  0  0  0
  -11.8389   -2.3469   -0.4385 H   0  0  0  0  0  0  0  0  0  0  0  0
  -12.7011   -0.0221   -0.5160 H   0  0  0  0  0  0  0  0  0  0  0  0
  1 15  1  0  0  0  0
  1 23  1  0  0  0  0
  2 16  1  0  0  0  0
  2 24  1  0  0  0  0
  3 25  2  0  0  0  0
  4  6  1  0  0  0  0
  4  7  1  0  0  0  0
  4 11  1  0  0  0  0
  5 22  1  0  0  0  0
  5 25  1  0  0  0  0
  5 56  1  0  0  0  0
  6  8  1  0  0  0  0
  6 34  1  0  0  0  0
  6 35  1  0  0  0  0
  7  9  1  0  0  0  0
  7 36  1  0  0  0  0
  7 37  1  0  0  0  0
  8 10  1  0  0  0  0
  8 38  1  0  0  0  0
  8 39  1  0  0  0  0
  9 10  1  0  0  0  0
  9 13  2  0  0  0  0
 10 14  2  0  0  0  0
 11 12  1  0  0  0  0
 11 40  1  0  0  0  0
 11 41  1  0  0  0  0
 12 17  1  0  0  0  0
 12 42  1  0  0  0  0
 12 43  1  0  0  0  0
 13 15  1  0  0  0  0
 13 44  1  0  0  0  0
 14 16  1  0  0  0  0
 14 45  1  0  0  0  0
 15 16  2  0  0  0  0
 17 18  2  0  0  0  0
 17 19  1  0  0  0  0
 18 20  1  0  0  0  0
 18 46  1  0  0  0  0
 19 21  2  0  0  0  0
 19 47  1  0  0  0  0
 20 22  2  0  0  0  0
 20 48  1  0  0  0  0
 21 22  1  0  0  0  0
 21 49  1  0  0  0  0
 23 50  1  0  0  0  0
 23 51  1  0  0  0  0
 23 52  1  0  0  0  0
 24 53  1  0  0  0  0
 24 54  1  0  0  0  0
 24 55  1  0  0  0  0
 25 26  1  0  0  0  0
 26 27  2  0  0  0  0
 26 57  1  0  0  0  0
 27 28  1  0  0  0  0
 27 58  1  0  0  0  0
 28 29  2  0  0  0  0
 28 30  1  0  0  0  0
 29 31  1  0  0  0  0
 29 59  1  0  0  0  0
 30 32  2  0  0  0  0
 30 60  1  0  0  0  0
 31 33  2  0  0  0  0
 31 61  1  0  0  0  0
 32 33  1  0  0  0  0
 32 62  1  0  0  0  0
 33 63  1  0  0  0  0
M  END
> <PUBCHEM_COMPOUND_CID>
44565423

> <PUBCHEM_CONFORMER_RMSD>
1

> <PUBCHEM_CONFORMER_DIVERSEORDER>
2
28
60
22
33
11
57
42
3
39
34
49
1
52
32
46
13
58
21
51
37
18
50
53
26
5
61
41
16
24
36
10
27
7
43
29
8
23
4
54
31
40
47
6
19
14
62
44
20
35
55
15
48
17
56
45
30
9
25
59
38
12

> <PUBCHEM_MMFF94_PARTIAL_CHARGES>
47
1 -0.36
10 -0.14
11 0.27
12 0.14
13 -0.15
14 -0.15
15 0.08
16 0.08
17 -0.14
18 -0.15
19 -0.15
2 -0.36
20 -0.15
21 -0.15
22 0.12
23 0.28
24 0.28
25 0.62
26 -0.14
27 -0.18
28 0.03
29 -0.15
3 -0.57
30 -0.15
31 -0.15
32 -0.15
33 -0.15
4 -0.81
44 0.15
45 0.15
46 0.15
47 0.15
48 0.15
49 0.15
5 -0.55
56 0.37
57 0.15
58 0.15
59 0.15
6 0.27
60 0.15
61 0.15
62 0.15
63 0.15
7 0.41
8 0.14
9 -0.14

> <PUBCHEM_EFFECTIVE_ROTOR_COUNT>
9.8

> <PUBCHEM_PHARMACOPHORE_FEATURES>
9
1 1 acceptor
1 2 acceptor
1 3 acceptor
1 4 cation
1 5 donor
6 17 18 19 20 21 22 rings
6 28 29 30 31 32 33 rings
6 4 6 7 8 9 10 rings
6 9 10 13 14 15 16 rings

> <PUBCHEM_HEAVY_ATOM_COUNT>
33

> <PUBCHEM_ATOM_DEF_STEREO_COUNT>
0

> <PUBCHEM_ATOM_UDEF_STEREO_COUNT>
0

> <PUBCHEM_BOND_DEF_STEREO_COUNT>
1

> <PUBCHEM_BOND_UDEF_STEREO_COUNT>
0

> <PUBCHEM_ISOTOPIC_ATOM_COUNT>
0

> <PUBCHEM_COMPONENT_COUNT>
1

> <PUBCHEM_CACTVS_TAUTO_COUNT>
2

> <PUBCHEM_CONFORMER_ID>
02A803AF00000002

> <PUBCHEM_MMFF94_ENERGY>
113.0339

> <PUBCHEM_FEATURE_SELFOVERLAP>
45.698

> <PUBCHEM_SHAPE_FINGERPRINT>
10 15 8358262545154024513
106641 1 10375874078577687457
11061554 47 16660354909570487637
11408170 108 16415490319704678231
11534866 41 15554451786790061684
11672396 167 18336825274344769674
12013929 2 18334853914910552877
12089408 11 18272937120346496905
12522641 33 15864066577285419225
12539745 222 16988849346155301833
12559415 86 18335989667330292325
12664476 115 14996279232233425671
12741549 16 15841554076638413489
12758862 56 16917064512721471475
13740195 50 10447925079830065405
14026016 60 17822284635898120322
14117953 113 16081089285760486167
14251764 46 18410575093263563039
14344974 52 15285365058775833909
14428016 248 11241968171143231663
150020 25 17458065988863403907
15065858 18 18201432606379534721
15198563 99 16660639609809025669
15247644 1 17131837572977029447
15320294 125 17846494850869444172
15326923 82 18409728487677559040
15510794 2 18113622313714284539
155225 1 12179842809810253663
15773216 30 16878775007441278315
15840311 113 17749391520265168853
15890870 6 18413108372745448895
16728433 110 17917706933778158288
16992610 120 14923944553081545465
1754911 235 17603300471618923805
21102433 48 17988921172048201815
21792961 116 18410858772766675113
21895431 317 18187920613491955362
22164985 6 18201151148609203725
232437 2 18413107273644504479
3092352 35 18408604791421021299
3711267 37 12107790679382722806
42767 2 18334858316513436261
439807 62 18342739632745966952
474113 269 18412827966845459088
5283156 175 18413671318065733888
54039377 194 18343581859349234013
57828716 72 16805612508625432988
57828716 8 18409444762380689194
58083652 198 17775011245009397137
59521099 67 18411701028074924580
59682541 35 13183021834757896861
6081469 158 18333730221704693453
6126387 218 12391520789560800843
9663363 56 17418373606200204232
9937071 3 18272371975079439019

> <PUBCHEM_SHAPE_MULTIPOLES>
651.55
46.94
2.4
0.98
64.65
1.11
0.04
21.62
-14.4
-4.71
0.3
-0.61
-0.22
-2.09

> <PUBCHEM_SHAPE_SELFOVERLAP>
1396.509

> <PUBCHEM_SHAPE_VOLUME>
360.1

> <PUBCHEM_COORDINATE_TYPE>
2
5
10

$$$$