56945302
  -OEChem-03242010103D

 40 42  0     0  0  0  0  0  0999 V2000
    1.7429    2.1211   -0.3272 O   0  0  0  0  0  0  0  0  0  0  0  0
    6.6689    1.8833    0.7440 O   0  0  0  0  0  0  0  0  0  0  0  0
    7.3870   -0.6786   -0.0624 O   0  0  0  0  0  0  0  0  0  0  0  0
   -0.3511   -3.1308   -0.7598 O   0  5  0  0  0  0  0  0  0  0  0  0
   -0.2965   -2.8449    1.4160 O   0  0  0  0  0  0  0  0  0  0  0  0
    1.0519   -0.1124   -0.0833 N   0  0  0  0  0  0  0  0  0  0  0  0
   -0.5680   -2.4387    0.2621 N   0  3  0  0  0  0  0  0  0  0  0  0
   -3.1211    0.2349   -0.0244 C   0  0  0  0  0  0  0  0  0  0  0  0
   -0.3430   -0.0160   -0.0620 C   0  0  0  0  0  0  0  0  0  0  0  0
   -1.1431   -1.1460    0.1067 C   0  0  0  0  0  0  0  0  0  0  0  0
   -2.5321   -1.0206    0.1254 C   0  0  0  0  0  0  0  0  0  0  0  0
   -4.5619    0.3657   -0.0062 C   0  0  0  0  0  0  0  0  0  0  0  0
   -2.3210    1.3650   -0.1930 C   0  0  0  0  0  0  0  0  0  0  0  0
   -0.9319    1.2396   -0.2117 C   0  0  0  0  0  0  0  0  0  0  0  0
    3.4089    0.5051   -0.1697 C   0  0  0  0  0  0  0  0  0  0  0  0
    1.9832    0.9242   -0.2102 C   0  0  0  0  0  0  0  0  0  0  0  0
   -5.2267    0.5865    1.2000 C   0  0  0  0  0  0  0  0  0  0  0  0
   -5.2860    0.2710   -1.1944 C   0  0  0  0  0  0  0  0  0  0  0  0
    4.3861    1.3970    0.2721 C   0  0  0  0  0  0  0  0  0  0  0  0
    3.7693   -0.7804   -0.5736 C   0  0  0  0  0  0  0  0  0  0  0  0
   -6.6158    0.7126    1.2179 C   0  0  0  0  0  0  0  0  0  0  0  0
   -6.6751    0.3972   -1.1767 C   0  0  0  0  0  0  0  0  0  0  0  0
    5.7237    1.0034    0.3101 C   0  0  0  0  0  0  0  0  0  0  0  0
   -7.3399    0.6179    0.0296 C   0  0  0  0  0  0  0  0  0  0  0  0
    5.1069   -1.1741   -0.5356 C   0  0  0  0  0  0  0  0  0  0  0  0
    6.0841   -0.2821   -0.0937 C   0  0  0  0  0  0  0  0  0  0  0  0
   -3.1552   -1.9037    0.2570 H   0  0  0  0  0  0  0  0  0  0  0  0
   -2.7655    2.3505   -0.3127 H   0  0  0  0  0  0  0  0  0  0  0  0
   -0.3921    2.1640   -0.3536 H   0  0  0  0  0  0  0  0  0  0  0  0
    1.4101   -1.0502    0.0657 H   0  0  0  0  0  0  0  0  0  0  0  0
   -4.6774    0.6628    2.1355 H   0  0  0  0  0  0  0  0  0  0  0  0
   -4.7835    0.0990   -2.1434 H   0  0  0  0  0  0  0  0  0  0  0  0
    4.1117    2.3990    0.5936 H   0  0  0  0  0  0  0  0  0  0  0  0
    3.0503   -1.4956   -0.9615 H   0  0  0  0  0  0  0  0  0  0  0  0
   -7.1335    0.8845    2.1570 H   0  0  0  0  0  0  0  0  0  0  0  0
   -7.2391    0.3235   -2.1019 H   0  0  0  0  0  0  0  0  0  0  0  0
    5.3755   -2.1756   -0.8612 H   0  0  0  0  0  0  0  0  0  0  0  0
   -8.4215    0.7161    0.0434 H   0  0  0  0  0  0  0  0  0  0  0  0
    6.2371    2.7219    0.9812 H   0  0  0  0  0  0  0  0  0  0  0  0
    7.4464   -1.5971   -0.3767 H   0  0  0  0  0  0  0  0  0  0  0  0
  1 16  2  0  0  0  0
  2 23  1  0  0  0  0
  2 39  1  0  0  0  0
  3 26  1  0  0  0  0
  3 40  1  0  0  0  0
  4  7  1  0  0  0  0
  5  7  2  0  0  0  0
  6  9  1  0  0  0  0
  6 16  1  0  0  0  0
  6 30  1  0  0  0  0
  7 10  1  0  0  0  0
  8 11  2  0  0  0  0
  8 12  1  0  0  0  0
  8 13  1  0  0  0  0
  9 10  2  0  0  0  0
  9 14  1  0  0  0  0
 10 11  1  0  0  0  0
 11 27  1  0  0  0  0
 12 17  2  0  0  0  0
 12 18  1  0  0  0  0
 13 14  2  0  0  0  0
 13 28  1  0  0  0  0
 14 29  1  0  0  0  0
 15 16  1  0  0  0  0
 15 19  2  0  0  0  0
 15 20  1  0  0  0  0
 17 21  1  0  0  0  0
 17 31  1  0  0  0  0
 18 22  2  0  0  0  0
 18 32  1  0  0  0  0
 19 23  1  0  0  0  0
 19 33  1  0  0  0  0
 20 25  2  0  0  0  0
 20 34  1  0  0  0  0
 21 24  2  0  0  0  0
 21 35  1  0  0  0  0
 22 24  1  0  0  0  0
 22 36  1  0  0  0  0
 23 26  2  0  0  0  0
 24 38  1  0  0  0  0
 25 26  1  0  0  0  0
 25 37  1  0  0  0  0
M  CHG  2   4  -1   7   1
M  END
> <PUBCHEM_COMPOUND_CID>
56945302

> <PUBCHEM_CONFORMER_RMSD>
0.8

> <PUBCHEM_CONFORMER_DIVERSEORDER>
1
11
8
4
6
5
12
9
10
7
3
2

> <PUBCHEM_MMFF94_PARTIAL_CHARGES>
38
1 -0.57
10 0.13
11 -0.15
13 -0.15
14 -0.15
15 0.09
16 0.54
17 -0.15
18 -0.15
19 -0.15
2 -0.53
20 -0.15
21 -0.15
22 -0.15
23 0.08
24 -0.15
25 -0.15
26 0.08
27 0.15
28 0.15
29 0.15
3 -0.53
30 0.37
31 0.15
32 0.15
33 0.15
34 0.15
35 0.15
36 0.15
37 0.15
38 0.15
39 0.45
4 -0.52
40 0.45
5 -0.52
6 -0.55
7 0.91
9 0.12

> <PUBCHEM_EFFECTIVE_ROTOR_COUNT>
5

> <PUBCHEM_PHARMACOPHORE_FEATURES>
10
1 1 acceptor
1 2 donor
1 3 donor
1 4 acceptor
1 4 anion
1 5 acceptor
1 6 donor
6 12 17 18 21 22 24 rings
6 15 19 20 23 25 26 rings
6 8 9 10 11 13 14 rings

> <PUBCHEM_HEAVY_ATOM_COUNT>
26

> <PUBCHEM_ATOM_DEF_STEREO_COUNT>
0

> <PUBCHEM_ATOM_UDEF_STEREO_COUNT>
0

> <PUBCHEM_BOND_DEF_STEREO_COUNT>
0

> <PUBCHEM_BOND_UDEF_STEREO_COUNT>
0

> <PUBCHEM_ISOTOPIC_ATOM_COUNT>
0

> <PUBCHEM_COMPONENT_COUNT>
1

> <PUBCHEM_CACTVS_TAUTO_COUNT>
22

> <PUBCHEM_CONFORMER_ID>
0364EA9600000001

> <PUBCHEM_MMFF94_ENERGY>
93.1897

> <PUBCHEM_FEATURE_SELFOVERLAP>
50.832

> <PUBCHEM_SHAPE_FINGERPRINT>
10 15 17967811687156173864
10299344 5 17561082501149245892
10835480 77 18271521026679462632
10906281 52 18200330908223151332
11315181 36 17561081428509955297
11524674 6 16588029026257687985
11578080 2 17129847564504883682
11646440 116 18411426106689929889
12107698 1 16845570911496678785
12236239 1 17847062169173804461
12838862 33 18335966624239625812
13533116 47 17989207006558453370
1361 2 17846503582485689774
13631057 29 18200305663397396295
13914758 101 16845301501203843024
14251764 18 17989207053133407981
14856354 85 14996291323246735217
15183329 4 18413669097551512242
15849732 13 17603307059349702580
15927050 60 18260263066392430835
19141452 34 18411419557312747982
2026 5 11820086957123306616
20567600 254 18186516588555570559
21033648 29 17916855950511430568
21236236 1 18339361980803335831
21267235 1 18336834108970593348
21403212 168 18334853900860002283
21521721 280 18342741818884151963
21781051 124 17823725068743854851
21859007 373 17677311862563763388
22224240 67 18334859424820817851
23402539 116 18271803553469038437
23536379 177 16845575292647656293
23559900 14 18199460129268332632
23569917 315 18411143571500427335
23569943 247 17984712112303278462
23622692 88 18186522120167389108
249057 3 18334860541702361796
283562 15 18339361838536730321
3004659 81 18260548922910054516
3178227 256 18334307469846764817
335352 9 18410013247638937692
340366 18 17822297941094314716
38695281 34 18272370841693421879
404807 14 15834838048619682918
4073 2 18336266855365203970
4340502 62 16226046678104917010
5104073 3 18263643038439762744
5385378 56 18335425604131132211
5758199 1 18343305860165532697
59755656 215 18261393304183631895
59755656 520 18413101780091442791
6138700 20 18408604738493816183
6669772 16 18411702045760225431

> <PUBCHEM_SHAPE_MULTIPOLES>
495.76
19.7
2.12
0.97
2.19
1.51
-0.08
-5.93
-0.52
1.4
-0.24
-1.18
0.1
0.44

> <PUBCHEM_SHAPE_SELFOVERLAP>
1092.165

> <PUBCHEM_SHAPE_VOLUME>
265.7

> <PUBCHEM_COORDINATE_TYPE>
2
5
10

$$$$