44565458
  -OEChem-03242010103D

 65 68  0     1  0  0  0  0  0999 V2000
    8.4578    2.6059    0.5754 O   0  0  0  0  0  0  0  0  0  0  0  0
    9.9641    0.4736   -0.3737 O   0  0  0  0  0  0  0  0  0  0  0  0
   -7.1303    0.7505    0.0027 O   0  0  0  0  0  0  0  0  0  0  0  0
   -4.5668    1.2002    0.1463 O   0  0  0  0  0  0  0  0  0  0  0  0
    3.7796   -1.2284   -0.3497 N   0  0  1  0  0  0  0  0  0  0  0  0
   -4.0224   -1.0721    0.4519 N   0  0  0  0  0  0  0  0  0  0  0  0
   -8.7200    2.4927   -1.5433 N   0  0  0  0  0  0  0  0  0  0  0  0
    4.3962   -1.9339   -1.4799 C   0  0  0  0  0  0  0  0  0  0  0  0
    4.3001    0.1475   -0.2635 C   0  0  0  0  0  0  0  0  0  0  0  0
    5.8950   -2.1194   -1.2226 C   0  0  0  0  0  0  0  0  0  0  0  0
    5.8102    0.2172   -0.2682 C   0  0  0  0  0  0  0  0  0  0  0  0
    6.5722   -0.8520   -0.7696 C   0  0  0  0  0  0  0  0  0  0  0  0
    2.3229   -1.2145   -0.4786 C   0  0  0  0  0  0  0  0  0  0  0  0
    1.6538   -1.0491    0.8862 C   0  0  0  0  0  0  0  0  0  0  0  0
    6.4573    1.3804    0.1704 C   0  0  0  0  0  0  0  0  0  0  0  0
    7.9697   -0.7574   -0.7903 C   0  0  0  0  0  0  0  0  0  0  0  0
    7.8487    1.4687    0.1371 C   0  0  0  0  0  0  0  0  0  0  0  0
    8.6042    0.4002   -0.3405 C   0  0  0  0  0  0  0  0  0  0  0  0
    0.1504   -1.0553    0.7700 C   0  0  0  0  0  0  0  0  0  0  0  0
   -0.5391    0.1416    0.5751 C   0  0  0  0  0  0  0  0  0  0  0  0
   -0.5511   -2.2577    0.8587 C   0  0  0  0  0  0  0  0  0  0  0  0
   -1.9299    0.1361    0.4691 C   0  0  0  0  0  0  0  0  0  0  0  0
   -1.9419   -2.2632    0.7527 C   0  0  0  0  0  0  0  0  0  0  0  0
   -2.6312   -1.0664    0.5579 C   0  0  0  0  0  0  0  0  0  0  0  0
    7.6122    3.6526    1.0485 C   0  0  0  0  0  0  0  0  0  0  0  0
   10.6656    0.0231    0.7836 C   0  0  0  0  0  0  0  0  0  0  0  0
   -4.8800    0.0187    0.2566 C   0  0  0  0  0  0  0  0  0  0  0  0
   -6.3329   -0.3995    0.1947 C   0  0  0  0  0  0  0  0  0  0  0  0
   -8.4905    0.5654   -0.0678 C   0  0  0  0  0  0  0  0  0  0  0  0
   -9.2911    1.4174   -0.8286 C   0  0  0  0  0  0  0  0  0  0  0  0
   -9.0685   -0.4920    0.6346 C   0  0  0  0  0  0  0  0  0  0  0  0
  -10.6696    1.2121   -0.8868 C   0  0  0  0  0  0  0  0  0  0  0  0
  -10.4470   -0.6975    0.5763 C   0  0  0  0  0  0  0  0  0  0  0  0
  -11.2474    0.1545   -0.1845 C   0  0  0  0  0  0  0  0  0  0  0  0
    4.2347   -1.3841   -2.4171 H   0  0  0  0  0  0  0  0  0  0  0  0
    3.9548   -2.9301   -1.6074 H   0  0  0  0  0  0  0  0  0  0  0  0
    3.9468    0.6077    0.6664 H   0  0  0  0  0  0  0  0  0  0  0  0
    3.9387    0.7571   -1.1027 H   0  0  0  0  0  0  0  0  0  0  0  0
    6.0412   -2.8798   -0.4448 H   0  0  0  0  0  0  0  0  0  0  0  0
    6.3681   -2.4855   -2.1416 H   0  0  0  0  0  0  0  0  0  0  0  0
    1.9830   -0.4482   -1.1882 H   0  0  0  0  0  0  0  0  0  0  0  0
    1.9779   -2.1735   -0.8898 H   0  0  0  0  0  0  0  0  0  0  0  0
    1.9620   -0.1148    1.3707 H   0  0  0  0  0  0  0  0  0  0  0  0
    1.9694   -1.8534    1.5641 H   0  0  0  0  0  0  0  0  0  0  0  0
    5.8172    2.1817    0.5252 H   0  0  0  0  0  0  0  0  0  0  0  0
    8.5643   -1.5901   -1.1591 H   0  0  0  0  0  0  0  0  0  0  0  0
   -0.0021    1.0838    0.5025 H   0  0  0  0  0  0  0  0  0  0  0  0
   -0.0250   -3.1967    1.0088 H   0  0  0  0  0  0  0  0  0  0  0  0
   -2.3927    1.1013    0.3181 H   0  0  0  0  0  0  0  0  0  0  0  0
   -2.4756   -3.2077    0.8234 H   0  0  0  0  0  0  0  0  0  0  0  0
    6.9657    4.0400    0.2536 H   0  0  0  0  0  0  0  0  0  0  0  0
    7.0470    3.3459    1.9352 H   0  0  0  0  0  0  0  0  0  0  0  0
    8.2632    4.4771    1.3574 H   0  0  0  0  0  0  0  0  0  0  0  0
   10.3819    0.6134    1.6606 H   0  0  0  0  0  0  0  0  0  0  0  0
   10.4660   -1.0380    0.9638 H   0  0  0  0  0  0  0  0  0  0  0  0
   11.7369    0.1523    0.6067 H   0  0  0  0  0  0  0  0  0  0  0  0
   -4.4599   -1.9882    0.5254 H   0  0  0  0  0  0  0  0  0  0  0  0
   -6.5314   -0.8773    1.1600 H   0  0  0  0  0  0  0  0  0  0  0  0
   -6.4665   -1.1098   -0.6293 H   0  0  0  0  0  0  0  0  0  0  0  0
   -8.5054   -1.1743    1.2604 H   0  0  0  0  0  0  0  0  0  0  0  0
  -11.3050    1.8690   -1.4754 H   0  0  0  0  0  0  0  0  0  0  0  0
  -10.8987   -1.5176    1.1271 H   0  0  0  0  0  0  0  0  0  0  0  0
  -12.3209   -0.0048   -0.2287 H   0  0  0  0  0  0  0  0  0  0  0  0
   -7.7207    2.6448   -1.5084 H   0  0  0  0  0  0  0  0  0  0  0  0
   -9.3065    3.1042   -2.0953 H   0  0  0  0  0  0  0  0  0  0  0  0
  1 17  1  0  0  0  0
  1 25  1  0  0  0  0
  2 18  1  0  0  0  0
  2 26  1  0  0  0  0
  3 28  1  0  0  0  0
  3 29  1  0  0  0  0
  4 27  2  0  0  0  0
  5  8  1  0  0  0  0
  5  9  1  0  0  0  0
  5 13  1  0  0  0  0
  6 24  1  0  0  0  0
  6 27  1  0  0  0  0
  6 57  1  0  0  0  0
  7 30  1  0  0  0  0
  7 64  1  0  0  0  0
  7 65  1  0  0  0  0
  8 10  1  0  0  0  0
  8 35  1  0  0  0  0
  8 36  1  0  0  0  0
  9 11  1  0  0  0  0
  9 37  1  0  0  0  0
  9 38  1  0  0  0  0
 10 12  1  0  0  0  0
 10 39  1  0  0  0  0
 10 40  1  0  0  0  0
 11 12  1  0  0  0  0
 11 15  2  0  0  0  0
 12 16  2  0  0  0  0
 13 14  1  0  0  0  0
 13 41  1  0  0  0  0
 13 42  1  0  0  0  0
 14 19  1  0  0  0  0
 14 43  1  0  0  0  0
 14 44  1  0  0  0  0
 15 17  1  0  0  0  0
 15 45  1  0  0  0  0
 16 18  1  0  0  0  0
 16 46  1  0  0  0  0
 17 18  2  0  0  0  0
 19 20  2  0  0  0  0
 19 21  1  0  0  0  0
 20 22  1  0  0  0  0
 20 47  1  0  0  0  0
 21 23  2  0  0  0  0
 21 48  1  0  0  0  0
 22 24  2  0  0  0  0
 22 49  1  0  0  0  0
 23 24  1  0  0  0  0
 23 50  1  0  0  0  0
 25 51  1  0  0  0  0
 25 52  1  0  0  0  0
 25 53  1  0  0  0  0
 26 54  1  0  0  0  0
 26 55  1  0  0  0  0
 26 56  1  0  0  0  0
 27 28  1  0  0  0  0
 28 58  1  0  0  0  0
 28 59  1  0  0  0  0
 29 30  1  0  0  0  0
 29 31  2  0  0  0  0
 30 32  2  0  0  0  0
 31 33  1  0  0  0  0
 31 60  1  0  0  0  0
 32 34  1  0  0  0  0
 32 61  1  0  0  0  0
 33 34  2  0  0  0  0
 33 62  1  0  0  0  0
 34 63  1  0  0  0  0
M  END
> <PUBCHEM_COMPOUND_CID>
44565458

> <PUBCHEM_CONFORMER_RMSD>
1.2

> <PUBCHEM_CONFORMER_DIVERSEORDER>
6
95
88
78
75
118
27
32
126
120
47
124
77
17
104
133
8
44
31
64
112
53
36
111
2
105
100
66
16
80
99
94
14
59
119
50
38
26
23
109
1
72
89
116
125
113
93
103
127
43
7
117
48
110
65
61
115
54
81
20
22
114
87
123
69
39
132
51
82
79
24
25
90
18
128
42
91
9
74
15
46
108
76
45
28
71
40
12
73
30
129
19
52
97
10
13
121
33
55
21
122
86
98
37
85
11
134
57
101
34
60
131
84
106
83
5
68
92
58
62
4
130
35
67
102
96
3
107
41
70
63
56
49
29

> <PUBCHEM_MMFF94_PARTIAL_CHARGES>
47
1 -0.36
10 0.14
11 -0.14
12 -0.14
13 0.27
14 0.14
15 -0.15
16 -0.15
17 0.08
18 0.08
19 -0.14
2 -0.36
20 -0.15
21 -0.15
22 -0.15
23 -0.15
24 0.12
25 0.28
26 0.28
27 0.57
28 0.34
29 0.08
3 -0.36
30 0.1
31 -0.15
32 -0.15
33 -0.15
34 -0.15
4 -0.57
45 0.15
46 0.15
47 0.15
48 0.15
49 0.15
5 -0.81
50 0.15
57 0.37
6 -0.55
60 0.15
61 0.15
62 0.15
63 0.15
64 0.4
65 0.4
7 -0.9
8 0.27
9 0.41

> <PUBCHEM_EFFECTIVE_ROTOR_COUNT>
10.8

> <PUBCHEM_PHARMACOPHORE_FEATURES>
12
1 1 acceptor
1 2 acceptor
1 3 acceptor
1 4 acceptor
1 5 cation
1 6 donor
1 7 cation
1 7 donor
6 11 12 15 16 17 18 rings
6 19 20 21 22 23 24 rings
6 29 30 31 32 33 34 rings
6 5 8 9 10 11 12 rings

> <PUBCHEM_HEAVY_ATOM_COUNT>
34

> <PUBCHEM_ATOM_DEF_STEREO_COUNT>
0

> <PUBCHEM_ATOM_UDEF_STEREO_COUNT>
0

> <PUBCHEM_BOND_DEF_STEREO_COUNT>
0

> <PUBCHEM_BOND_UDEF_STEREO_COUNT>
0

> <PUBCHEM_ISOTOPIC_ATOM_COUNT>
0

> <PUBCHEM_COMPONENT_COUNT>
1

> <PUBCHEM_CACTVS_TAUTO_COUNT>
2

> <PUBCHEM_CONFORMER_ID>
02A803D200000006

> <PUBCHEM_MMFF94_ENERGY>
130.5877

> <PUBCHEM_FEATURE_SELFOVERLAP>
60.934

> <PUBCHEM_SHAPE_FINGERPRINT>
10076449 9 16056880213550611403
10533779 47 10809342226549050069
10835480 77 18271531978930060682
10883706 142 16732983128567842243
11061554 47 18040713649999522277
11135609 127 18130223861399348400
11146346 40 17346312747708064232
11211813 74 18413669123616994712
11409948 35 17749667374042623762
11443803 9 17748827406248970795
11456790 92 13695592139672208271
11607047 141 17822843201322454642
11607047 74 11383246666433275610
11638347 137 8070026670990246343
11693224 71 18335417967484653026
12013929 2 18408891720826947222
12098696 120 18259704502105902961
12522641 33 18059859445958453719
12539745 222 8430324541544662855
12559415 141 11455891399316412925
12559415 43 18113891663729800293
12559415 90 18187079521191881765
12664476 115 18334573542480089893
131240 100 18411420653041235011
13947947 74 18343021082000444585
14017578 135 18341062839471417593
14040221 304 16845578634944986100
14251764 46 18259705601032065595
14344974 52 18341611547154542123
15219723 13 16226037865971535138
15247644 1 13830131689640678893
15510794 2 18408327696224555235
155225 1 18113900447095324525
15530121 191 18408597059568175045
1754911 235 18413669111143309103
17686467 74 17675928695407710005
1818759 1 11887670676526452631
20812841 46 17967529053076182138
20982279 24 10087647052237119197
21267235 1 11095882662135186283
21362267 2 18342163505591334369
21362267 313 17241318067199049129
21585481 151 11095874978924016605
21792934 111 18272083925757791448
21867018 265 17775278405297849407
23528521 120 18413101776297427293
24771293 8 17385726843219745093
306946 40 18333447647100082725
395649 100 17967535710439514939
4760202 170 18131347544823901072
4874694 18 18344148090199383294
5028188 123 17917709107669380527
54039377 194 12319733670703301491
67123 10 18343585140461531519

> <PUBCHEM_SHAPE_MULTIPOLES>
661.28
47.07
2.47
1.08
51.51
1.34
0.17
23.8
6.12
-3.92
-0.15
-0.1
-0.07
4.33

> <PUBCHEM_SHAPE_SELFOVERLAP>
1416.047

> <PUBCHEM_SHAPE_VOLUME>
365.9

> <PUBCHEM_COORDINATE_TYPE>
2
5
10

$$$$