10746774
  -OEChem-03242010103D

 85 91  0     1  0  0  0  0  0999 V2000
   -0.1529    2.5352   -0.1611 O   0  0  0  0  0  0  0  0  0  0  0  0
    2.0759    1.0533    2.2640 O   0  0  0  0  0  0  0  0  0  0  0  0
    0.7423    3.3060    1.8767 O   0  0  0  0  0  0  0  0  0  0  0  0
    2.5965   -0.8432    0.1941 O   0  0  0  0  0  0  0  0  0  0  0  0
    3.2394    3.6280    0.7454 O   0  0  0  0  0  0  0  0  0  0  0  0
    3.0363    0.2682   -3.3333 O   0  0  0  0  0  0  0  0  0  0  0  0
   -3.8192   -0.6436    0.3648 O   0  0  0  0  0  0  0  0  0  0  0  0
    0.4410   -1.4912    2.2103 O   0  0  0  0  0  0  0  0  0  0  0  0
    2.9373    3.1785   -2.3330 O   0  0  0  0  0  0  0  0  0  0  0  0
   -3.3685    3.0239    0.0535 O   0  0  0  0  0  0  0  0  0  0  0  0
   -2.1480   -2.2010    1.7647 O   0  0  0  0  0  0  0  0  0  0  0  0
    1.4712    1.1495    0.9831 C   0  0  2  0  0  0  0  0  0  0  0  0
    1.0487    2.6079    0.6582 C   0  0  1  0  0  0  0  0  0  0  0  0
    2.1208    3.3881   -0.0970 C   0  0  2  0  0  0  0  0  0  0  0  0
    0.1018    0.5428    0.9680 C   0  0  0  0  0  0  0  0  0  0  0  0
    2.3734    0.5043   -0.0505 C   0  0  0  0  0  0  0  0  0  0  0  0
    2.8910    1.1472   -1.1146 C   0  0  0  0  0  0  0  0  0  0  0  0
   -0.7598    1.3737    0.2590 C   0  0  0  0  0  0  0  0  0  0  0  0
    2.6490    2.6102   -1.2805 C   0  0  0  0  0  0  0  0  0  0  0  0
    3.7702    0.4683   -2.1264 C   0  0  1  0  0  0  0  0  0  0  0  0
   -2.0816    1.0358    0.0041 C   0  0  0  0  0  0  0  0  0  0  0  0
    4.2455   -0.8907   -1.6154 C   0  0  0  0  0  0  0  0  0  0  0  0
    3.0846   -1.6080   -0.9181 C   0  0  1  0  0  0  0  0  0  0  0  0
   -0.3437   -0.6651    1.4755 C   0  0  0  0  0  0  0  0  0  0  0  0
   -2.9871    1.9350   -0.7821 C   0  0  1  0  0  0  0  0  0  0  0  0
   -2.5381   -0.1802    0.5337 C   0  0  0  0  0  0  0  0  0  0  0  0
   -1.6745   -1.0251    1.2550 C   0  0  0  0  0  0  0  0  0  0  0  0
   -4.2267    1.1709   -1.2415 C   0  0  0  0  0  0  0  0  0  0  0  0
   -4.7724    0.3377   -0.0751 C   0  0  1  0  0  0  0  0  0  0  0  0
    3.5000   -2.9725   -0.4122 C   0  0  0  0  0  0  0  0  0  0  0  0
    3.4822    1.1948    2.1742 C   0  0  0  0  0  0  0  0  0  0  0  0
    0.2608    4.6137    1.6125 C   0  0  0  0  0  0  0  0  0  0  0  0
    4.0218    4.7202    0.2795 C   0  0  0  0  0  0  0  0  0  0  0  0
   -6.0454   -0.3828   -0.4685 C   0  0  0  0  0  0  0  0  0  0  0  0
    3.3625   -4.0922   -1.2328 C   0  0  0  0  0  0  0  0  0  0  0  0
    4.0208   -3.1107    0.8745 C   0  0  0  0  0  0  0  0  0  0  0  0
    3.9037    0.0653   -4.4382 C   0  0  0  0  0  0  0  0  0  0  0  0
    0.4412   -1.3035    3.6265 C   0  0  0  0  0  0  0  0  0  0  0  0
   -7.2826    0.2329   -0.2780 C   0  0  0  0  0  0  0  0  0  0  0  0
   -5.9808   -1.6617   -1.0219 C   0  0  0  0  0  0  0  0  0  0  0  0
   -2.0536   -3.3500    0.9282 C   0  0  0  0  0  0  0  0  0  0  0  0
    3.7454   -5.3498   -0.7667 C   0  0  0  0  0  0  0  0  0  0  0  0
    4.4038   -4.3684    1.3404 C   0  0  0  0  0  0  0  0  0  0  0  0
    4.2661   -5.4879    0.5197 C   0  0  0  0  0  0  0  0  0  0  0  0
   -8.4550   -0.4303   -0.6406 C   0  0  0  0  0  0  0  0  0  0  0  0
   -7.1532   -2.3247   -1.3845 C   0  0  0  0  0  0  0  0  0  0  0  0
   -8.3902   -1.7090   -1.1938 C   0  0  0  0  0  0  0  0  0  0  0  0
    1.7028    4.3232   -0.4923 H   0  0  0  0  0  0  0  0  0  0  0  0
    4.6460    1.1025   -2.3184 H   0  0  0  0  0  0  0  0  0  0  0  0
    4.6620   -1.5230   -2.4041 H   0  0  0  0  0  0  0  0  0  0  0  0
    5.0496   -0.7208   -0.8853 H   0  0  0  0  0  0  0  0  0  0  0  0
    2.2424   -1.7404   -1.6116 H   0  0  0  0  0  0  0  0  0  0  0  0
   -2.4629    2.3394   -1.6556 H   0  0  0  0  0  0  0  0  0  0  0  0
   -4.9902    1.8663   -1.6102 H   0  0  0  0  0  0  0  0  0  0  0  0
   -3.9492    0.5045   -2.0695 H   0  0  0  0  0  0  0  0  0  0  0  0
   -4.9959    0.9790    0.7890 H   0  0  0  0  0  0  0  0  0  0  0  0
    3.9352    0.2079    2.3227 H   0  0  0  0  0  0  0  0  0  0  0  0
    3.7972    1.7993    3.0319 H   0  0  0  0  0  0  0  0  0  0  0  0
    3.9344    1.6400    1.2929 H   0  0  0  0  0  0  0  0  0  0  0  0
    1.0766    5.2984    1.3663 H   0  0  0  0  0  0  0  0  0  0  0  0
   -0.5178    4.6436    0.8448 H   0  0  0  0  0  0  0  0  0  0  0  0
   -0.1873    4.9864    2.5393 H   0  0  0  0  0  0  0  0  0  0  0  0
    4.4912    4.4941   -0.6816 H   0  0  0  0  0  0  0  0  0  0  0  0
    3.4191    5.6307    0.2054 H   0  0  0  0  0  0  0  0  0  0  0  0
    4.8178    4.8977    1.0084 H   0  0  0  0  0  0  0  0  0  0  0  0
   -3.9483    3.6045   -0.4681 H   0  0  0  0  0  0  0  0  0  0  0  0
    2.9601   -3.9968   -2.2378 H   0  0  0  0  0  0  0  0  0  0  0  0
    4.1501   -2.2538    1.5294 H   0  0  0  0  0  0  0  0  0  0  0  0
    4.6097    0.8953   -4.5434 H   0  0  0  0  0  0  0  0  0  0  0  0
    3.2889    0.0329   -5.3426 H   0  0  0  0  0  0  0  0  0  0  0  0
    4.4400   -0.8838   -4.3729 H   0  0  0  0  0  0  0  0  0  0  0  0
    1.3610   -1.7371    4.0283 H   0  0  0  0  0  0  0  0  0  0  0  0
   -0.4140   -1.8260    4.0654 H   0  0  0  0  0  0  0  0  0  0  0  0
    0.4032   -0.2436    3.8976 H   0  0  0  0  0  0  0  0  0  0  0  0
   -7.3457    1.2298    0.1500 H   0  0  0  0  0  0  0  0  0  0  0  0
   -5.0297   -2.1582   -1.1933 H   0  0  0  0  0  0  0  0  0  0  0  0
   -2.6259   -3.2067    0.0063 H   0  0  0  0  0  0  0  0  0  0  0  0
   -1.0077   -3.5676    0.6893 H   0  0  0  0  0  0  0  0  0  0  0  0
   -2.4722   -4.2030    1.4691 H   0  0  0  0  0  0  0  0  0  0  0  0
    3.6388   -6.2215   -1.4058 H   0  0  0  0  0  0  0  0  0  0  0  0
    4.8119   -4.4759    2.3411 H   0  0  0  0  0  0  0  0  0  0  0  0
    4.5651   -6.4671    0.8824 H   0  0  0  0  0  0  0  0  0  0  0  0
   -9.4182    0.0494   -0.4930 H   0  0  0  0  0  0  0  0  0  0  0  0
   -7.1030   -3.3192   -1.8182 H   0  0  0  0  0  0  0  0  0  0  0  0
   -9.3029   -2.2250   -1.4770 H   0  0  0  0  0  0  0  0  0  0  0  0
  1 13  1  0  0  0  0
  1 18  1  0  0  0  0
  2 12  1  0  0  0  0
  2 31  1  0  0  0  0
  3 13  1  0  0  0  0
  3 32  1  0  0  0  0
  4 16  1  0  0  0  0
  4 23  1  0  0  0  0
  5 14  1  0  0  0  0
  5 33  1  0  0  0  0
  6 20  1  0  0  0  0
  6 37  1  0  0  0  0
  7 26  1  0  0  0  0
  7 29  1  0  0  0  0
  8 24  1  0  0  0  0
  8 38  1  0  0  0  0
  9 19  2  0  0  0  0
 10 25  1  0  0  0  0
 10 66  1  0  0  0  0
 11 27  1  0  0  0  0
 11 41  1  0  0  0  0
 12 13  1  0  0  0  0
 12 15  1  0  0  0  0
 12 16  1  0  0  0  0
 13 14  1  0  0  0  0
 14 19  1  0  0  0  0
 14 48  1  0  0  0  0
 15 18  1  0  0  0  0
 15 24  2  0  0  0  0
 16 17  2  0  0  0  0
 17 19  1  0  0  0  0
 17 20  1  0  0  0  0
 18 21  2  0  0  0  0
 20 22  1  0  0  0  0
 20 49  1  0  0  0  0
 21 25  1  0  0  0  0
 21 26  1  0  0  0  0
 22 23  1  0  0  0  0
 22 50  1  0  0  0  0
 22 51  1  0  0  0  0
 23 30  1  0  0  0  0
 23 52  1  0  0  0  0
 24 27  1  0  0  0  0
 25 28  1  0  0  0  0
 25 53  1  0  0  0  0
 26 27  2  0  0  0  0
 28 29  1  0  0  0  0
 28 54  1  0  0  0  0
 28 55  1  0  0  0  0
 29 34  1  0  0  0  0
 29 56  1  0  0  0  0
 30 35  2  0  0  0  0
 30 36  1  0  0  0  0
 31 57  1  0  0  0  0
 31 58  1  0  0  0  0
 31 59  1  0  0  0  0
 32 60  1  0  0  0  0
 32 61  1  0  0  0  0
 32 62  1  0  0  0  0
 33 63  1  0  0  0  0
 33 64  1  0  0  0  0
 33 65  1  0  0  0  0
 34 39  2  0  0  0  0
 34 40  1  0  0  0  0
 35 42  1  0  0  0  0
 35 67  1  0  0  0  0
 36 43  2  0  0  0  0
 36 68  1  0  0  0  0
 37 69  1  0  0  0  0
 37 70  1  0  0  0  0
 37 71  1  0  0  0  0
 38 72  1  0  0  0  0
 38 73  1  0  0  0  0
 38 74  1  0  0  0  0
 39 45  1  0  0  0  0
 39 75  1  0  0  0  0
 40 46  2  0  0  0  0
 40 76  1  0  0  0  0
 41 77  1  0  0  0  0
 41 78  1  0  0  0  0
 41 79  1  0  0  0  0
 42 44  2  0  0  0  0
 42 80  1  0  0  0  0
 43 44  1  0  0  0  0
 43 81  1  0  0  0  0
 44 82  1  0  0  0  0
 45 47  2  0  0  0  0
 45 83  1  0  0  0  0
 46 47  1  0  0  0  0
 46 84  1  0  0  0  0
 47 85  1  0  0  0  0
M  END
> <PUBCHEM_COMPOUND_CID>
10746774

> <PUBCHEM_CONFORMER_RMSD>
1.2

> <PUBCHEM_CONFORMER_DIVERSEORDER>
1
6
4
3
2
7
5

> <PUBCHEM_MMFF94_PARTIAL_CHARGES>
56
1 -0.36
10 -0.68
11 -0.36
12 0.56
13 0.56
14 0.34
15 -0.14
16 -0.06
17 -0.12
18 0.08
19 0.49
2 -0.56
20 0.42
21 -0.14
23 0.42
24 0.08
25 0.42
26 0.08
27 0.08
29 0.42
3 -0.56
30 -0.14
31 0.28
32 0.28
33 0.28
34 -0.14
35 -0.15
36 -0.15
37 0.28
38 0.28
39 -0.15
4 -0.36
40 -0.15
41 0.28
42 -0.15
43 -0.15
44 -0.15
45 -0.15
46 -0.15
47 -0.15
5 -0.56
6 -0.56
66 0.4
67 0.15
68 0.15
7 -0.36
75 0.15
76 0.15
8 -0.36
80 0.15
81 0.15
82 0.15
83 0.15
84 0.15
85 0.15
9 -0.57

> <PUBCHEM_EFFECTIVE_ROTOR_COUNT>
10

> <PUBCHEM_PHARMACOPHORE_FEATURES>
19
1 1 acceptor
1 10 acceptor
1 10 donor
1 11 acceptor
1 2 acceptor
1 3 acceptor
1 4 acceptor
1 5 acceptor
1 6 acceptor
1 7 acceptor
1 8 acceptor
1 9 acceptor
5 1 12 13 15 18 rings
6 12 13 14 16 17 19 rings
6 15 18 21 24 26 27 rings
6 30 35 36 42 43 44 rings
6 34 39 40 45 46 47 rings
6 4 16 17 20 22 23 rings
6 7 21 25 26 28 29 rings

> <PUBCHEM_HEAVY_ATOM_COUNT>
47

> <PUBCHEM_ATOM_DEF_STEREO_COUNT>
7

> <PUBCHEM_ATOM_UDEF_STEREO_COUNT>
0

> <PUBCHEM_BOND_DEF_STEREO_COUNT>
0

> <PUBCHEM_BOND_UDEF_STEREO_COUNT>
0

> <PUBCHEM_ISOTOPIC_ATOM_COUNT>
0

> <PUBCHEM_COMPONENT_COUNT>
1

> <PUBCHEM_CACTVS_TAUTO_COUNT>
2

> <PUBCHEM_CONFORMER_ID>
00A3FB9600000001

> <PUBCHEM_MMFF94_ENERGY>
190.5467

> <PUBCHEM_FEATURE_SELFOVERLAP>
96.939

> <PUBCHEM_SHAPE_FINGERPRINT>
10079526 769 18340778060920473449
10622 236 18120093883761377118
10721379 63 18272370914121796458
10952577 141 11526221690778684722
11093857 51 17824284789055365526
11115154 58 18191591847754798736
11445158 3 15007054279130265812
11607047 403 18200576099585165000
11720765 8 18339074887571448284
12633046 712 18117868575791017451
13636023 20 18059298755114858552
13782708 43 18261391123221148503
14068700 675 17975134241276388318
15324884 4 17614310056998322368
15406563 42 17905888428654904933
15484559 13 17914338124524122236
15950262 2 15287918219317786494
15968369 26 18188206623452964122
17909252 39 18342458118877044009
19311894 1 17907296555432430721
19315092 285 17703221824323680802
20775438 99 18264755731391436227
23559900 14 18188502387843357708
4046055 25 17831578673947839286
4066623 53 18114456760559395980
44280117 145 17620477909979457894
513532 50 17917430968505658688
57527295 17 18340505377689615212
6669772 16 18338793549906681255
70251023 43 18411415095026376385
9831232 110 18411694388407938991

> <PUBCHEM_SHAPE_MULTIPOLES>
902.68
15.25
6.66
2.76
40.65
2.54
-1.15
11.69
-8.37
-11.64
1.29
-3.65
-0.04
-0.95

> <PUBCHEM_SHAPE_SELFOVERLAP>
2006.993

> <PUBCHEM_SHAPE_VOLUME>
477.8

> <PUBCHEM_COORDINATE_TYPE>
2
5
10

$$$$