107
 OpenBabel03292021563D

 50 52  0  0  0  0  0  0  0  0999 V2000
    1.1812    0.4451   -0.6208 C   0  0  0  0  0  0  0  0  0  0  0  0
    2.6019    0.3110   -0.2476 N   0  0  0  0  0  0  0  0  0  0  0  0
    2.9262    0.8842    1.0587 C   0  0  0  0  0  0  0  0  0  0  0  0
    3.2293   -0.8741   -0.6520 C   0  0  0  0  0  0  0  0  0  0  0  0
    2.9191   -1.5083   -1.8595 C   0  0  0  0  0  0  0  0  0  0  0  0
    3.5688   -2.6846   -2.2776 C   0  0  0  0  0  0  0  0  0  0  0  0
    4.5734   -3.2915   -1.5054 C   0  0  0  0  0  0  0  0  0  0  0  0
    5.2771   -4.5264   -1.9951 C   0  0  0  0  0  0  0  0  0  0  0  0
    4.9037   -5.1337   -3.3126 C   0  0  0  0  0  0  0  0  0  0  0  0
    3.9170   -6.1256   -3.3812 C   0  0  0  0  0  0  0  0  0  0  0  0
    3.6144   -6.7349   -4.6014 C   0  0  0  0  0  0  0  0  0  0  0  0
    4.2922   -6.3512   -5.7592 C   0  0  0  0  0  0  0  0  0  0  0  0
    5.2604   -5.3507   -5.7038 C   0  0  0  0  0  0  0  0  0  0  0  0
    5.5641   -4.7378   -4.4856 C   0  0  0  0  0  0  0  0  0  0  0  0
    6.2832   -5.1216   -1.2792 C   0  0  0  0  0  0  0  0  0  0  0  0
    6.9922   -6.3022   -1.8070 C   0  0  0  0  0  0  0  0  0  0  0  0
    7.9921   -6.9186   -1.1612 C   0  0  0  0  0  0  0  0  0  0  0  0
    8.4615   -6.4548    0.1808 C   0  0  0  0  0  0  0  0  0  0  0  0
    9.4307   -7.0318    0.8462 N   0  3  0  0  0  0  0  0  0  0  0  0
    9.9412   -6.5800    2.1899 C   0  0  0  0  0  0  0  0  0  0  0  0
   10.1877   -8.2408    0.3755 C   0  0  0  0  0  0  0  0  0  0  0  0
    7.7233   -5.2657    0.7024 C   0  0  0  0  0  0  0  0  0  0  0  0
    6.7320   -4.6446    0.0347 C   0  0  0  0  0  0  0  0  0  0  0  0
    6.0599   -3.2909    0.8618 S   0  0  0  0  0  0  0  0  0  0  0  0
    4.8808   -2.6737   -0.2947 C   0  0  0  0  0  0  0  0  0  0  0  0
    4.2325   -1.4859    0.1033 C   0  0  0  0  0  0  0  0  0  0  0  0
   -2.6814   -0.1579   -0.4623 Br  0  5  0  0  0  0  0  0  0  0  0  0
    0.7176    1.2935   -0.1048 H   0  0  0  0  0  0  0  0  0  0  0  0
    0.6269   -0.4584   -0.3497 H   0  0  0  0  0  0  0  0  0  0  0  0
    1.0777    0.6424   -1.6924 H   0  0  0  0  0  0  0  0  0  0  0  0
    2.4026    1.8342    1.2132 H   0  0  0  0  0  0  0  0  0  0  0  0
    3.9951    1.1154    1.1319 H   0  0  0  0  0  0  0  0  0  0  0  0
    2.6412    0.2081    1.8729 H   0  0  0  0  0  0  0  0  0  0  0  0
    2.1582   -1.0940   -2.5177 H   0  0  0  0  0  0  0  0  0  0  0  0
    3.2537   -3.1024   -3.2317 H   0  0  0  0  0  0  0  0  0  0  0  0
    3.3758   -6.4283   -2.4859 H   0  0  0  0  0  0  0  0  0  0  0  0
    2.8454   -7.5005   -4.6515 H   0  0  0  0  0  0  0  0  0  0  0  0
    4.0517   -6.8244   -6.7098 H   0  0  0  0  0  0  0  0  0  0  0  0
    5.7737   -5.0413   -6.6116 H   0  0  0  0  0  0  0  0  0  0  0  0
    6.3159   -3.9530   -4.4560 H   0  0  0  0  0  0  0  0  0  0  0  0
    6.7122   -6.7042   -2.7779 H   0  0  0  0  0  0  0  0  0  0  0  0
    8.4445   -7.7648   -1.6608 H   0  0  0  0  0  0  0  0  0  0  0  0
    9.4768   -5.6616    2.5382 H   0  0  0  0  0  0  0  0  0  0  0  0
   11.0170   -6.4075    2.0972 H   0  0  0  0  0  0  0  0  0  0  0  0
    9.7440   -7.3810    2.9073 H   0  0  0  0  0  0  0  0  0  0  0  0
    9.8232   -8.6230   -0.5739 H   0  0  0  0  0  0  0  0  0  0  0  0
   10.0784   -9.0184    1.1369 H   0  0  0  0  0  0  0  0  0  0  0  0
   11.2388   -7.9562    0.2733 H   0  0  0  0  0  0  0  0  0  0  0  0
    7.9855   -4.8682    1.6741 H   0  0  0  0  0  0  0  0  0  0  0  0
    4.5205   -1.0489    1.0550 H   0  0  0  0  0  0  0  0  0  0  0  0
  1  2  1  0  0  0  0
  1 28  1  0  0  0  0
  1 29  1  0  0  0  0
  1 30  1  0  0  0  0
  2  3  1  0  0  0  0
  2  4  1  0  0  0  0
  3 31  1  0  0  0  0
  3 32  1  0  0  0  0
  3 33  1  0  0  0  0
  4  5  1  0  0  0  0
  4 26  2  0  0  0  0
  5  6  2  0  0  0  0
  5 34  1  0  0  0  0
  6  7  1  0  0  0  0
  6 35  1  0  0  0  0
  7  8  1  0  0  0  0
  7 25  2  0  0  0  0
  8  9  1  0  0  0  0
  8 15  2  0  0  0  0
  9 10  1  0  0  0  0
  9 14  2  0  0  0  0
 10 11  2  0  0  0  0
 10 36  1  0  0  0  0
 11 12  1  0  0  0  0
 11 37  1  0  0  0  0
 12 13  2  0  0  0  0
 12 38  1  0  0  0  0
 13 14  1  0  0  0  0
 13 39  1  0  0  0  0
 14 40  1  0  0  0  0
 15 16  1  0  0  0  0
 15 23  1  0  0  0  0
 16 17  2  0  0  0  0
 16 41  1  0  0  0  0
 17 18  1  0  0  0  0
 17 42  1  0  0  0  0
 18 19  2  0  0  0  0
 18 22  1  0  0  0  0
 19 20  1  0  0  0  0
 19 21  1  0  0  0  0
 20 43  1  0  0  0  0
 20 44  1  0  0  0  0
 20 45  1  0  0  0  0
 21 46  1  0  0  0  0
 21 47  1  0  0  0  0
 21 48  1  0  0  0  0
 22 23  2  0  0  0  0
 22 49  1  0  0  0  0
 23 24  1  0  0  0  0
 24 25  1  0  0  0  0
 25 26  1  0  0  0  0
 26 50  1  0  0  0  0
M  CHG  2  19   1  27  -1
M  END
>  <Energy>
74.7424

$$$$