17
 OpenBabel03302012423D

 76 81  0  0  0  0  0  0  0  0999 V2000
    2.2049    0.7133    1.5683 C   0  0  0  0  0  0  0  0  0  0  0  0
    3.4019    0.2856    0.8388 N   0  3  0  0  0  0  0  0  0  0  0  0
    4.0680   -0.9013    1.3614 C   0  0  0  0  0  0  0  0  0  0  0  0
    3.8908    1.0102   -0.1488 C   0  0  0  0  0  0  0  0  0  0  0  0
    5.2144    0.8393   -0.6101 C   0  0  0  0  0  0  0  0  0  0  0  0
    5.8054    1.7336   -1.5046 C   0  0  0  0  0  0  0  0  0  0  0  0
    5.0998    2.8290   -2.0621 C   0  0  0  0  0  0  0  0  0  0  0  0
    5.7394    3.8918   -2.7959 C   0  0  0  0  0  0  0  0  0  0  0  0
    7.2436    3.9400   -2.7439 C   0  0  0  0  0  0  0  0  0  0  0  0
    8.1568    4.1992   -3.7675 C   0  0  0  0  0  0  0  0  0  0  0  0
    9.4971    4.1598   -3.3489 C   0  0  0  0  0  0  0  0  0  0  0  0
    9.6598    3.8856   -1.9899 C   0  0  0  0  0  0  0  0  0  0  0  0
   10.9478    3.7669   -1.2555 C   0  0  0  0  0  0  0  0  0  0  0  0
   10.9580    3.9907    0.1724 S   0  0  0  0  0  0  0  0  0  0  0  0
   12.1466    3.3353   -1.9337 N   0  0  0  0  0  0  0  0  0  0  0  0
   12.0889    2.4080   -3.0579 C   0  0  0  0  0  0  0  0  0  0  0  0
   12.8968    1.1564   -2.6788 C   0  0  0  0  0  0  0  0  0  0  0  0
   14.2254    1.5053   -2.3222 O   0  0  0  0  0  0  0  0  0  0  0  0
   14.2100    2.3305   -1.1673 C   0  0  0  0  0  0  0  0  0  0  0  0
   13.4880    3.6460   -1.4641 C   0  0  0  0  0  0  0  0  0  0  0  0
    8.1317    3.7415   -1.3175 S   0  0  0  0  0  0  0  0  0  0  0  0
    5.0001    4.9660   -3.4305 C   0  0  0  0  0  0  0  0  0  0  0  0
    5.6756    6.0960   -3.9966 C   0  0  0  0  0  0  0  0  0  0  0  0
    4.9971    7.1529   -4.6237 C   0  0  0  0  0  0  0  0  0  0  0  0
    3.5958    7.1317   -4.6804 C   0  0  0  0  0  0  0  0  0  0  0  0
    2.8835    6.0708   -4.0977 C   0  0  0  0  0  0  0  0  0  0  0  0
    3.5707    4.9895   -3.4875 C   0  0  0  0  0  0  0  0  0  0  0  0
    2.4842    3.6972   -2.7943 Se  0  0  0  0  0  0  0  0  0  0  0  0
    3.6586    2.8246   -1.7851 C   0  0  0  0  0  0  0  0  0  0  0  0
    3.1215    2.0119   -0.7822 C   0  0  0  0  0  0  0  0  0  0  0  0
    1.3537    6.1028   -4.1273 C   0  0  0  0  0  0  0  0  0  0  0  0
    0.7619    7.4455   -4.5614 C   0  0  0  0  0  0  0  0  0  0  0  0
    1.5321    7.9722   -5.7556 C   0  0  0  0  0  0  0  0  0  0  0  0
    2.8938    8.1924   -5.3214 N   0  0  0  0  0  0  0  0  0  0  0  0
    3.5299    9.4945   -5.4358 C   0  0  0  0  0  0  0  0  0  0  0  0
    4.9229    9.3207   -6.0240 C   0  0  0  0  0  0  0  0  0  0  0  0
    5.7770    8.3293   -5.1938 C   0  0  0  0  0  0  0  0  0  0  0  0
   -1.1070   -0.6865   -2.4714 F   0  0  0  0  0  0  0  0  0  0  0  0
   -0.0476   -1.0523   -1.1737 P   0  5  0  0  0  0  0  0  0  0  0  0
   -1.3810   -1.1228   -0.0928 F   0  0  0  0  0  0  0  0  0  0  0  0
   -0.2089   -2.7301   -1.4941 F   0  0  0  0  0  0  0  0  0  0  0  0
    1.0085   -1.4406    0.1192 F   0  0  0  0  0  0  0  0  0  0  0  0
    1.2994   -0.9700   -2.2366 F   0  0  0  0  0  0  0  0  0  0  0  0
    0.0904    0.6298   -0.8812 F   0  0  0  0  0  0  0  0  0  0  0  0
    2.0205    0.0874    2.4694 H   0  0  0  0  0  0  0  0  0  0  0  0
    2.3480    1.7550    1.9418 H   0  0  0  0  0  0  0  0  0  0  0  0
    1.2809    0.7075    0.9849 H   0  0  0  0  0  0  0  0  0  0  0  0
    3.2967   -1.6669    1.6050 H   0  0  0  0  0  0  0  0  0  0  0  0
    4.6391   -0.6549    2.2751 H   0  0  0  0  0  0  0  0  0  0  0  0
    4.6550   -1.4287    0.5882 H   0  0  0  0  0  0  0  0  0  0  0  0
    5.8692    0.0881   -0.2027 H   0  0  0  0  0  0  0  0  0  0  0  0
    6.8482    1.5596   -1.7080 H   0  0  0  0  0  0  0  0  0  0  0  0
    7.8759    4.3968   -4.7928 H   0  0  0  0  0  0  0  0  0  0  0  0
   10.3240    4.3395   -4.0228 H   0  0  0  0  0  0  0  0  0  0  0  0
   12.5378    2.8844   -3.9546 H   0  0  0  0  0  0  0  0  0  0  0  0
   11.0547    2.0844   -3.2969 H   0  0  0  0  0  0  0  0  0  0  0  0
   12.9266    0.4656   -3.5478 H   0  0  0  0  0  0  0  0  0  0  0  0
   12.4056    0.6016   -1.8456 H   0  0  0  0  0  0  0  0  0  0  0  0
   15.2560    2.5551   -0.8726 H   0  0  0  0  0  0  0  0  0  0  0  0
   13.7341    1.8021   -0.3095 H   0  0  0  0  0  0  0  0  0  0  0  0
   14.0307    4.1837   -2.2722 H   0  0  0  0  0  0  0  0  0  0  0  0
   13.4890    4.3018   -0.5686 H   0  0  0  0  0  0  0  0  0  0  0  0
    6.7430    6.1937   -3.9582 H   0  0  0  0  0  0  0  0  0  0  0  0
    2.0653    2.1150   -0.5707 H   0  0  0  0  0  0  0  0  0  0  0  0
    0.9383    5.9164   -3.1140 H   0  0  0  0  0  0  0  0  0  0  0  0
    1.0185    5.2941   -4.8113 H   0  0  0  0  0  0  0  0  0  0  0  0
    0.8802    8.1876   -3.7404 H   0  0  0  0  0  0  0  0  0  0  0  0
   -0.3226    7.3168   -4.7657 H   0  0  0  0  0  0  0  0  0  0  0  0
    1.0573    8.8978   -6.1356 H   0  0  0  0  0  0  0  0  0  0  0  0
    1.5002    7.2043   -6.5724 H   0  0  0  0  0  0  0  0  0  0  0  0
    2.9221   10.1827   -6.0693 H   0  0  0  0  0  0  0  0  0  0  0  0
    3.6127    9.9372   -4.4244 H   0  0  0  0  0  0  0  0  0  0  0  0
    5.4462   10.3023   -6.0889 H   0  0  0  0  0  0  0  0  0  0  0  0
    4.7975    8.9295   -7.0551 H   0  0  0  0  0  0  0  0  0  0  0  0
    6.2390    8.8547   -4.3325 H   0  0  0  0  0  0  0  0  0  0  0  0
    6.5946    7.9768   -5.8617 H   0  0  0  0  0  0  0  0  0  0  0  0
  1  2  1  0  0  0  0
  1 45  1  0  0  0  0
  1 46  1  0  0  0  0
  1 47  1  0  0  0  0
  2  3  1  0  0  0  0
  2  4  2  0  0  0  0
  3 48  1  0  0  0  0
  3 49  1  0  0  0  0
  3 50  1  0  0  0  0
  4  5  1  0  0  0  0
  4 30  1  0  0  0  0
  5  6  2  0  0  0  0
  5 51  1  0  0  0  0
  6  7  1  0  0  0  0
  6 52  1  0  0  0  0
  7  8  2  0  0  0  0
  7 29  1  0  0  0  0
  8  9  1  0  0  0  0
  8 22  1  0  0  0  0
  9 10  2  0  0  0  0
  9 21  1  0  0  0  0
 10 11  1  0  0  0  0
 10 53  1  0  0  0  0
 11 12  2  0  0  0  0
 11 54  1  0  0  0  0
 12 13  1  0  0  0  0
 12 21  1  0  0  0  0
 13 14  2  0  0  0  0
 13 15  1  0  0  0  0
 15 16  1  0  0  0  0
 15 20  1  0  0  0  0
 16 17  1  0  0  0  0
 16 55  1  0  0  0  0
 16 56  1  0  0  0  0
 17 18  1  0  0  0  0
 17 57  1  0  0  0  0
 17 58  1  0  0  0  0
 18 19  1  0  0  0  0
 19 20  1  0  0  0  0
 19 59  1  0  0  0  0
 19 60  1  0  0  0  0
 20 61  1  0  0  0  0
 20 62  1  0  0  0  0
 22 23  1  0  0  0  0
 22 27  2  0  0  0  0
 23 24  2  0  0  0  0
 23 63  1  0  0  0  0
 24 25  1  0  0  0  0
 24 37  1  0  0  0  0
 25 26  2  0  0  0  0
 25 34  1  0  0  0  0
 26 27  1  0  0  0  0
 26 31  1  0  0  0  0
 27 28  1  0  0  0  0
 28 29  1  0  0  0  0
 29 30  2  0  0  0  0
 30 64  1  0  0  0  0
 31 32  1  0  0  0  0
 31 65  1  0  0  0  0
 31 66  1  0  0  0  0
 32 33  1  0  0  0  0
 32 67  1  0  0  0  0
 32 68  1  0  0  0  0
 33 34  1  0  0  0  0
 33 69  1  0  0  0  0
 33 70  1  0  0  0  0
 34 35  1  0  0  0  0
 35 36  1  0  0  0  0
 35 71  1  0  0  0  0
 35 72  1  0  0  0  0
 36 37  1  0  0  0  0
 36 73  1  0  0  0  0
 36 74  1  0  0  0  0
 37 75  1  0  0  0  0
 37 76  1  0  0  0  0
 38 39  1  0  0  0  0
 39 40  1  0  0  0  0
 39 41  1  0  0  0  0
 39 42  1  0  0  0  0
 39 43  1  0  0  0  0
 39 44  1  0  0  0  0
M  CHG  2   2   1  39  -1
M  END
$$$$