1
 OpenBabel03302012423D

191191  0  0  1  0  0  0  0  0999 V2000
    3.2532   -3.0719    0.5852 C   0  0  0  0  0  0  0  0  0  0  0  0
    4.8837   -3.3210    0.9195 C   0  0  0  0  0  0  0  0  0  0  0  0
    5.9034   -4.1998    0.4925 C   0  0  0  0  0  0  0  0  0  0  0  0
    7.7437   -4.6286    0.6699 C   0  0  0  0  0  0  0  0  0  0  0  0
    9.5757   -3.9238    0.3645 C   0  0  1  0  0  0  0  0  0  0  0  0
    8.6183   -2.5591   -0.1666 C   0  0  0  0  0  0  0  0  0  0  0  0
   11.4328   -4.2446    1.3155 C   0  0  1  0  0  0  0  0  0  0  0  0
   10.0803   -3.9305    2.6391 O   0  0  0  0  0  0  0  0  0  0  0  0
   13.5782   -3.7398    1.8868 C   0  0  1  0  0  0  0  0  0  0  0  0
   15.8316   -3.4329    2.0418 C   0  0  0  0  0  0  0  0  0  0  0  0
   16.2306   -4.3400    2.8960 O   0  0  0  0  0  0  0  0  0  0  0  0
   17.7705   -2.7956    1.8358 N   0  0  0  0  0  0  0  0  0  0  0  0
   19.8463   -2.2968    1.8397 C   0  0  1  0  0  0  0  0  0  0  0  0
   21.4708   -1.2131    2.8615 C   0  0  1  0  0  0  0  0  0  0  0  0
   23.3528   -1.0471    2.8168 C   0  0  0  0  0  0  0  0  0  0  0  0
   21.7564    0.0372    3.7025 O   0  0  0  0  0  0  0  0  0  0  0  0
   21.7525   -2.9185    1.2511 C   0  0  0  0  0  0  0  0  0  0  0  0
   22.3981   -3.1142    2.3132 O   0  0  0  0  0  0  0  0  0  0  0  0
   23.4357   -2.7150    0.8169 N   0  0  0  0  0  0  0  0  0  0  0  0
   25.1253   -2.1949    1.3686 C   0  0  0  0  0  0  0  0  0  0  0  0
   23.8753   -4.1085    0.5603 C   0  0  0  0  0  0  0  0  0  0  0  0
   23.0733   -5.3283    1.0443 C   0  0  0  0  0  0  0  0  0  0  0  0
   22.6799   -6.0644    0.1244 O   0  0  0  0  0  0  0  0  0  0  0  0
   22.7479   -5.7467    2.3296 N   0  0  0  0  0  0  0  0  0  0  0  0
   22.8186   -5.1524    3.7601 C   0  0  1  0  0  0  0  0  0  0  0  0
   21.3683   -4.5616    4.4624 C   0  0  0  0  0  0  0  0  0  0  0  0
   20.3159   -5.5947    4.7725 C   0  0  0  0  0  0  0  0  0  0  0  0
   21.5323   -3.4402    5.5210 C   0  0  0  0  0  0  0  0  0  0  0  0
   24.3913   -4.7546    4.1621 C   0  0  0  0  0  0  0  0  0  0  0  0
   25.2431   -4.5502    3.2829 O   0  0  0  0  0  0  0  0  0  0  0  0
   24.9146   -4.7271    5.4271 N   0  0  0  0  0  0  0  0  0  0  0  0
   24.2417   -4.7653    6.7189 C   0  0  2  0  0  0  0  0  0  0  0  0
   23.1834   -5.8869    6.5765 C   0  0  0  0  0  0  0  0  0  0  0  0
   22.1363   -6.0683    7.6434 C   0  0  0  0  0  0  0  0  0  0  0  0
   23.7477   -7.2102    6.0044 C   0  0  0  0  0  0  0  0  0  0  0  0
   24.0423   -3.1769    7.0447 C   0  0  0  0  0  0  0  0  0  0  0  0
   24.3844   -2.3013    6.2369 O   0  0  0  0  0  0  0  0  0  0  0  0
   23.4190   -2.7948    8.2212 N   0  0  0  0  0  0  0  0  0  0  0  0
   23.9618   -3.3852    9.4181 C   0  0  0  0  0  0  0  0  0  0  0  0
   22.8221   -1.4119    8.3003 C   0  0  2  0  0  0  0  0  0  0  0  0
   23.8304   -0.2097    8.5888 C   0  0  0  0  0  0  0  0  0  0  0  0
   23.1910    1.2183    8.5816 C   0  0  0  0  0  0  0  0  0  0  0  0
   22.0353    1.4073    9.5577 C   0  0  0  0  0  0  0  0  0  0  0  0
   23.9811    2.5060    8.7533 C   0  0  0  0  0  0  0  0  0  0  0  0
   21.6434   -1.4956    9.3058 C   0  0  0  0  0  0  0  0  0  0  0  0
   21.7939   -1.8068   10.4917 O   0  0  0  0  0  0  0  0  0  0  0  0
   20.3860   -1.0951    8.9553 N   0  0  0  0  0  0  0  0  0  0  0  0
   19.8776   -0.6292    7.6860 C   0  0  1  0  0  0  0  0  0  0  0  0
   18.3957   -0.8880    7.6700 C   0  0  0  0  0  0  0  0  0  0  0  0
   20.3334    0.7506    7.0177 C   0  0  0  0  0  0  0  0  0  0  0  0
   21.4624    0.8041    6.5155 O   0  0  0  0  0  0  0  0  0  0  0  0
   19.5844    1.8352    6.6845 N   0  0  0  0  0  0  0  0  0  0  0  0
   18.1473    2.1515    6.7485 C   0  0  2  0  0  0  0  0  0  0  0  0
   17.7860    2.1402    8.2186 C   0  0  0  0  0  0  0  0  0  0  0  0
   17.0435    1.3967    5.8330 C   0  0  0  0  0  0  0  0  0  0  0  0
   16.2933    0.5501    6.3263 O   0  0  0  0  0  0  0  0  0  0  0  0
   16.9998    1.6491    4.4573 N   0  0  0  0  0  0  0  0  0  0  0  0
   16.7899    2.9982    4.0238 C   0  0  0  0  0  0  0  0  0  0  0  0
   16.6147    0.6074    3.4725 C   0  0  1  0  0  0  0  0  0  0  0  0
   17.1281   -0.7138    3.8303 C   0  0  0  0  0  0  0  0  0  0  0  0
   18.5330   -0.9908    3.8566 C   0  0  0  0  0  0  0  0  0  0  0  0
   19.2939    0.0364    4.5215 C   0  0  0  0  0  0  0  0  0  0  0  0
   18.5940   -2.3353    4.6348 C   0  0  0  0  0  0  0  0  0  0  0  0
   15.1844    0.2192    3.1564 C   0  0  0  0  0  0  0  0  0  0  0  0
   14.6628    0.7186    2.1546 O   0  0  0  0  0  0  0  0  0  0  0  0
   14.5074   -0.6173    4.0402 N   0  0  0  0  0  0  0  0  0  0  0  0
   14.8209   -1.9979    4.6479 C   0  0  0  0  0  0  0  0  0  0  0  0
   13.1302   -0.3552    4.0823 C   0  0  1  0  0  0  0  0  0  0  0  0
   12.4636    0.9424    3.9224 C   0  0  0  0  0  0  0  0  0  0  0  0
   10.9232    0.8009    4.0413 C   0  0  0  0  0  0  0  0  0  0  0  0
   10.4667    0.3491    5.4223 C   0  0  0  0  0  0  0  0  0  0  0  0
   10.3837    2.1552    3.6457 C   0  0  0  0  0  0  0  0  0  0  0  0
   12.5379   -1.3082    3.1763 C   0  0  0  0  0  0  0  0  0  0  0  0
   12.0260   -2.1343    3.9560 O   0  0  0  0  0  0  0  0  0  0  0  0
   12.5554   -1.1466    1.5659 N   0  0  0  0  0  0  0  0  0  0  0  0
   11.6369    0.0227    1.0840 C   0  0  0  0  0  0  0  0  0  0  0  0
   12.2122   -2.3525    0.5829 C   0  0  1  0  0  0  0  0  0  0  0  0
   12.9810   -4.0231   -0.1338 C   0  0  0  0  0  0  0  0  0  0  0  0
   12.8020   -5.7861    0.4581 C   0  0  0  0  0  0  0  0  0  0  0  0
   12.5545   -4.2970   -1.5336 C   0  0  0  0  0  0  0  0  0  0  0  0
   11.2298   -2.4505    1.8624 C   0  0  0  0  0  0  0  0  0  0  0  0
   10.1062   -1.9276    1.9451 O   0  0  0  0  0  0  0  0  0  0  0  0
   12.0924   -3.8014    2.7608 N   0  0  0  0  0  0  0  0  0  0  0  0
   11.2118   -5.4410    3.2287 C   0  0  0  0  0  0  0  0  0  0  0  0
    2.9349   -2.0993    1.0320 H   0  0  0  0  0  0  0  0  0  0  0  0
    2.5125   -3.7653    1.0334 H   0  0  0  0  0  0  0  0  0  0  0  0
    2.9750   -2.9330   -0.4750 H   0  0  0  0  0  0  0  0  0  0  0  0
    5.1105   -2.5474    1.6455 H   0  0  0  0  0  0  0  0  0  0  0  0
    5.4141   -4.9533   -0.1624 H   0  0  0  0  0  0  0  0  0  0  0  0
    7.6826   -4.9724   -0.3926 H   0  0  0  0  0  0  0  0  0  0  0  0
    7.7361   -5.5922    1.1882 H   0  0  0  0  0  0  0  0  0  0  0  0
    9.7907   -4.4455   -0.5721 H   0  0  0  0  0  0  0  0  0  0  0  0
    8.1712   -1.8715    0.5829 H   0  0  0  0  0  0  0  0  0  0  0  0
    7.6177   -2.9193   -0.5397 H   0  0  0  0  0  0  0  0  0  0  0  0
    8.8836   -2.1287   -1.1313 H   0  0  0  0  0  0  0  0  0  0  0  0
   11.1538   -5.2318    1.1839 H   0  0  0  0  0  0  0  0  0  0  0  0
    9.1627   -3.8747    2.3580 H   0  0  0  0  0  0  0  0  0  0  0  0
   13.7954   -4.4388    2.7722 H   0  0  0  0  0  0  0  0  0  0  0  0
   18.0002   -3.6119    2.4024 H   0  0  0  0  0  0  0  0  0  0  0  0
   19.8816   -2.7734    2.8786 H   0  0  0  0  0  0  0  0  0  0  0  0
   21.6117   -1.9494    3.6376 H   0  0  0  0  0  0  0  0  0  0  0  0
   23.7886   -0.3825    2.0429 H   0  0  0  0  0  0  0  0  0  0  0  0
   23.8716   -1.9663    3.1327 H   0  0  0  0  0  0  0  0  0  0  0  0
   23.9197   -0.5458    3.6826 H   0  0  0  0  0  0  0  0  0  0  0  0
   22.4861   -0.1139    4.3900 H   0  0  0  0  0  0  0  0  0  0  0  0
   25.4510   -2.0924    2.4409 H   0  0  0  0  0  0  0  0  0  0  0  0
   25.5544   -1.3469    0.8073 H   0  0  0  0  0  0  0  0  0  0  0  0
   25.9212   -2.9676    1.1364 H   0  0  0  0  0  0  0  0  0  0  0  0
   24.8992   -4.3590    0.9092 H   0  0  0  0  0  0  0  0  0  0  0  0
   24.0633   -4.0806   -0.5203 H   0  0  0  0  0  0  0  0  0  0  0  0
   21.9847   -6.3893    2.2129 H   0  0  0  0  0  0  0  0  0  0  0  0
   22.7277   -4.2183    3.4192 H   0  0  0  0  0  0  0  0  0  0  0  0
   20.8501   -4.0572    3.6623 H   0  0  0  0  0  0  0  0  0  0  0  0
   20.4105   -6.0634    5.7418 H   0  0  0  0  0  0  0  0  0  0  0  0
   20.3717   -6.3447    3.9885 H   0  0  0  0  0  0  0  0  0  0  0  0
   19.3210   -5.1354    4.7509 H   0  0  0  0  0  0  0  0  0  0  0  0
   22.5711   -3.4113    5.6764 H   0  0  0  0  0  0  0  0  0  0  0  0
   20.9611   -3.5099    6.4473 H   0  0  0  0  0  0  0  0  0  0  0  0
   21.3823   -2.3999    5.2383 H   0  0  0  0  0  0  0  0  0  0  0  0
   25.8985   -4.4862    5.4580 H   0  0  0  0  0  0  0  0  0  0  0  0
   24.9761   -5.1145    7.4448 H   0  0  0  0  0  0  0  0  0  0  0  0
   22.5612   -5.6259    5.7697 H   0  0  0  0  0  0  0  0  0  0  0  0
   22.5695   -6.4028    8.5752 H   0  0  0  0  0  0  0  0  0  0  0  0
   21.4048   -6.8224    7.3190 H   0  0  0  0  0  0  0  0  0  0  0  0
   21.5733   -5.1402    7.7880 H   0  0  0  0  0  0  0  0  0  0  0  0
   24.3833   -7.7135    6.7258 H   0  0  0  0  0  0  0  0  0  0  0  0
   24.3420   -7.0603    5.0913 H   0  0  0  0  0  0  0  0  0  0  0  0
   22.9352   -7.8707    5.6762 H   0  0  0  0  0  0  0  0  0  0  0  0
   24.2137   -4.4281    9.2385 H   0  0  0  0  0  0  0  0  0  0  0  0
   23.2647   -3.3796   10.2479 H   0  0  0  0  0  0  0  0  0  0  0  0
   24.8754   -2.8387    9.6584 H   0  0  0  0  0  0  0  0  0  0  0  0
   22.4094   -1.2222    7.3064 H   0  0  0  0  0  0  0  0  0  0  0  0
   24.3756   -0.3718    9.5203 H   0  0  0  0  0  0  0  0  0  0  0  0
   24.5826   -0.2268    7.7845 H   0  0  0  0  0  0  0  0  0  0  0  0
   22.9481    1.3549    7.5420 H   0  0  0  0  0  0  0  0  0  0  0  0
   22.3950    1.6578   10.5558 H   0  0  0  0  0  0  0  0  0  0  0  0
   21.4534    0.5443    9.7449 H   0  0  0  0  0  0  0  0  0  0  0  0
   21.3030    2.1423    9.2130 H   0  0  0  0  0  0  0  0  0  0  0  0
   24.3905    2.5949    9.7578 H   0  0  0  0  0  0  0  0  0  0  0  0
   23.2653    3.3395    8.6142 H   0  0  0  0  0  0  0  0  0  0  0  0
   24.7460    2.6433    7.9896 H   0  0  0  0  0  0  0  0  0  0  0  0
   19.7481   -1.0814    9.7424 H   0  0  0  0  0  0  0  0  0  0  0  0
   20.3013   -1.3542    6.9817 H   0  0  0  0  0  0  0  0  0  0  0  0
   17.8337   -0.4434    8.4859 H   0  0  0  0  0  0  0  0  0  0  0  0
   18.1410   -1.9474    7.6550 H   0  0  0  0  0  0  0  0  0  0  0  0
   18.0431   -0.4902    6.7458 H   0  0  0  0  0  0  0  0  0  0  0  0
   20.1784    2.5263    6.2295 H   0  0  0  0  0  0  0  0  0  0  0  0
   18.1123    3.1931    6.4225 H   0  0  0  0  0  0  0  0  0  0  0  0
   18.3803    1.4200    8.7864 H   0  0  0  0  0  0  0  0  0  0  0  0
   16.7304    1.9247    8.3676 H   0  0  0  0  0  0  0  0  0  0  0  0
   18.0500    3.0991    8.6669 H   0  0  0  0  0  0  0  0  0  0  0  0
   17.2705    3.6952    4.7033 H   0  0  0  0  0  0  0  0  0  0  0  0
   15.7122    3.1744    4.0415 H   0  0  0  0  0  0  0  0  0  0  0  0
   17.1948    3.1355    3.0194 H   0  0  0  0  0  0  0  0  0  0  0  0
   17.0533    0.8942    2.5038 H   0  0  0  0  0  0  0  0  0  0  0  0
   16.7211   -1.4068    3.1052 H   0  0  0  0  0  0  0  0  0  0  0  0
   16.8192   -0.9430    4.8344 H   0  0  0  0  0  0  0  0  0  0  0  0
   18.8296   -0.8886    2.8214 H   0  0  0  0  0  0  0  0  0  0  0  0
   19.4326   -0.2751    5.5059 H   0  0  0  0  0  0  0  0  0  0  0  0
   19.2512    1.0948    4.2931 H   0  0  0  0  0  0  0  0  0  0  0  0
   20.2072   -0.2205    4.1882 H   0  0  0  0  0  0  0  0  0  0  0  0
   18.4718   -2.2307    5.7010 H   0  0  0  0  0  0  0  0  0  0  0  0
   19.5148   -2.8639    4.5865 H   0  0  0  0  0  0  0  0  0  0  0  0
   17.8159   -3.0336    4.3398 H   0  0  0  0  0  0  0  0  0  0  0  0
   15.8311   -2.3795    4.6286 H   0  0  0  0  0  0  0  0  0  0  0  0
   14.3070   -2.7829    4.0957 H   0  0  0  0  0  0  0  0  0  0  0  0
   14.4632   -2.0547    5.6779 H   0  0  0  0  0  0  0  0  0  0  0  0
   12.8740   -0.6691    5.1096 H   0  0  0  0  0  0  0  0  0  0  0  0
   12.7423    1.3640    2.9690 H   0  0  0  0  0  0  0  0  0  0  0  0
   12.8778    1.6177    4.6605 H   0  0  0  0  0  0  0  0  0  0  0  0
   10.4848    0.0563    3.3661 H   0  0  0  0  0  0  0  0  0  0  0  0
   10.8551    1.0269    6.1812 H   0  0  0  0  0  0  0  0  0  0  0  0
   10.8034   -0.6679    5.6588 H   0  0  0  0  0  0  0  0  0  0  0  0
    9.3741    0.3219    5.4716 H   0  0  0  0  0  0  0  0  0  0  0  0
   10.8834    2.9164    4.2477 H   0  0  0  0  0  0  0  0  0  0  0  0
    9.3055    2.2115    3.7749 H   0  0  0  0  0  0  0  0  0  0  0  0
   10.6118    2.3707    2.5953 H   0  0  0  0  0  0  0  0  0  0  0  0
   11.8180    0.9692    1.5422 H   0  0  0  0  0  0  0  0  0  0  0  0
   10.5502   -0.1088    1.2561 H   0  0  0  0  0  0  0  0  0  0  0  0
   11.7104    0.1434    0.0037 H   0  0  0  0  0  0  0  0  0  0  0  0
   11.6678   -1.9661   -0.2926 H   0  0  0  0  0  0  0  0  0  0  0  0
   14.0670   -3.9142   -0.1134 H   0  0  0  0  0  0  0  0  0  0  0  0
   11.8160   -6.2402    0.1418 H   0  0  0  0  0  0  0  0  0  0  0  0
   12.9032   -5.8716    1.5540 H   0  0  0  0  0  0  0  0  0  0  0  0
   13.4662   -6.5741    0.1416 H   0  0  0  0  0  0  0  0  0  0  0  0
   11.5301   -4.6728   -1.6025 H   0  0  0  0  0  0  0  0  0  0  0  0
   13.2050   -5.1105   -1.8807 H   0  0  0  0  0  0  0  0  0  0  0  0
   12.6998   -3.3951   -2.1003 H   0  0  0  0  0  0  0  0  0  0  0  0
   11.7113   -6.3805    2.9753 H   0  0  0  0  0  0  0  0  0  0  0  0
   10.3034   -5.7393    2.4940 H   0  0  0  0  0  0  0  0  0  0  0  0
   10.4842   -5.3936    4.0656 H   0  0  0  0  0  0  0  0  0  0  0  0
  1  2  1  0  0  0  0
  1 85  1  0  0  0  0
  1 86  1  0  0  0  0
  1 87  1  0  0  0  0
  2  3  2  0  0  0  0
  2 88  1  0  0  0  0
  3  4  1  0  0  0  0
  3 89  1  0  0  0  0
  4  5  1  0  0  0  0
  4 90  1  0  0  0  0
  4 91  1  0  0  0  0
  5  6  1  0  0  0  0
  5  7  1  0  0  0  0
  5 92  1  6  0  0  0
  6 93  1  0  0  0  0
  6 94  1  0  0  0  0
  6 95  1  0  0  0  0
  7  8  1  0  0  0  0
  7 96  1  6  0  0  0
  8 97  1  0  0  0  0
  9 10  1  0  0  0  0
  9 83  1  0  0  0  0
  9  7  1  0  0  0  0
  9 98  1  1  0  0  0
 10 11  2  0  0  0  0
 10 12  1  0  0  0  0
 12 13  1  0  0  0  0
 12 99  1  0  0  0  0
 13 14  1  0  0  0  0
 13 17  1  0  0  0  0
 13100  1  6  0  0  0
 14 15  1  0  0  0  0
 14 16  1  0  0  0  0
 14101  1  1  0  0  0
 15102  1  0  0  0  0
 15103  1  0  0  0  0
 15104  1  0  0  0  0
 16105  1  0  0  0  0
 17 18  2  0  0  0  0
 17 19  1  0  0  0  0
 19 20  1  0  0  0  0
 19 21  1  0  0  0  0
 20106  1  0  0  0  0
 20107  1  0  0  0  0
 20108  1  0  0  0  0
 21 22  1  0  0  0  0
 21109  1  0  0  0  0
 21110  1  0  0  0  0
 22 23  2  0  0  0  0
 22 24  1  0  0  0  0
 24 25  1  0  0  0  0
 24111  1  0  0  0  0
 25 26  1  0  0  0  0
 25 29  1  0  0  0  0
 25112  1  6  0  0  0
 26 27  1  0  0  0  0
 26 28  1  0  0  0  0
 26113  1  0  0  0  0
 27114  1  0  0  0  0
 27115  1  0  0  0  0
 27116  1  0  0  0  0
 28117  1  0  0  0  0
 28118  1  0  0  0  0
 28119  1  0  0  0  0
 29 30  2  0  0  0  0
 29 31  1  0  0  0  0
 31 32  1  0  0  0  0
 31120  1  0  0  0  0
 32 36  1  0  0  0  0
 32 33  1  0  0  0  0
 32121  1  1  0  0  0
 33 34  1  0  0  0  0
 33 35  1  0  0  0  0
 33122  1  0  0  0  0
 34123  1  0  0  0  0
 34124  1  0  0  0  0
 34125  1  0  0  0  0
 35126  1  0  0  0  0
 35127  1  0  0  0  0
 35128  1  0  0  0  0
 36 37  2  0  0  0  0
 36 38  1  0  0  0  0
 38 39  1  0  0  0  0
 38 40  1  0  0  0  0
 39129  1  0  0  0  0
 39130  1  0  0  0  0
 39131  1  0  0  0  0
 40 45  1  0  0  0  0
 40 41  1  0  0  0  0
 40132  1  6  0  0  0
 41 42  1  0  0  0  0
 41133  1  0  0  0  0
 41134  1  0  0  0  0
 42 43  1  0  0  0  0
 42 44  1  0  0  0  0
 42135  1  0  0  0  0
 43136  1  0  0  0  0
 43137  1  0  0  0  0
 43138  1  0  0  0  0
 44139  1  0  0  0  0
 44140  1  0  0  0  0
 44141  1  0  0  0  0
 45 46  2  0  0  0  0
 45 47  1  0  0  0  0
 47 48  1  0  0  0  0
 47142  1  0  0  0  0
 48 49  1  0  0  0  0
 48 50  1  0  0  0  0
 48143  1  6  0  0  0
 49144  1  0  0  0  0
 49145  1  0  0  0  0
 49146  1  0  0  0  0
 50 51  2  0  0  0  0
 50 52  1  0  0  0  0
 52 53  1  0  0  0  0
 52147  1  0  0  0  0
 53 55  1  0  0  0  0
 53 54  1  0  0  0  0
 53148  1  6  0  0  0
 54149  1  0  0  0  0
 54150  1  0  0  0  0
 54151  1  0  0  0  0
 55 56  2  0  0  0  0
 55 57  1  0  0  0  0
 57 58  1  0  0  0  0
 57 59  1  0  0  0  0
 58152  1  0  0  0  0
 58153  1  0  0  0  0
 58154  1  0  0  0  0
 59 60  1  0  0  0  0
 59 64  1  0  0  0  0
 59155  1  6  0  0  0
 60 61  1  0  0  0  0
 60156  1  0  0  0  0
 60157  1  0  0  0  0
 61 62  1  0  0  0  0
 61 63  1  0  0  0  0
 61158  1  0  0  0  0
 62159  1  0  0  0  0
 62160  1  0  0  0  0
 62161  1  0  0  0  0
 63162  1  0  0  0  0
 63163  1  0  0  0  0
 63164  1  0  0  0  0
 64 65  2  0  0  0  0
 64 66  1  0  0  0  0
 66 67  1  0  0  0  0
 66 68  1  0  0  0  0
 67165  1  0  0  0  0
 67166  1  0  0  0  0
 67167  1  0  0  0  0
 68 69  1  0  0  0  0
 68 73  1  0  0  0  0
 68168  1  1  0  0  0
 69 70  1  0  0  0  0
 69169  1  0  0  0  0
 69170  1  0  0  0  0
 70 71  1  0  0  0  0
 70 72  1  0  0  0  0
 70171  1  0  0  0  0
 71172  1  0  0  0  0
 71173  1  0  0  0  0
 71174  1  0  0  0  0
 72175  1  0  0  0  0
 72176  1  0  0  0  0
 72177  1  0  0  0  0
 73 74  2  0  0  0  0
 73 75  1  0  0  0  0
 75 76  1  0  0  0  0
 75 77  1  0  0  0  0
 76178  1  0  0  0  0
 76179  1  0  0  0  0
 76180  1  0  0  0  0
 77 78  1  0  0  0  0
 77 81  1  0  0  0  0
 77181  1  6  0  0  0
 78 79  1  0  0  0  0
 78 80  1  0  0  0  0
 78182  1  0  0  0  0
 79183  1  0  0  0  0
 79184  1  0  0  0  0
 79185  1  0  0  0  0
 80186  1  0  0  0  0
 80187  1  0  0  0  0
 80188  1  0  0  0  0
 81 82  2  0  0  0  0
 81 83  1  0  0  0  0
 83 84  1  0  0  0  0
 84189  1  0  0  0  0
 84190  1  0  0  0  0
 84191  1  0  0  0  0
M  END
$$$$