109
 OpenBabel03292021573D

201201  0  0  1  0  0  0  0  0999 V2000
    4.8296    0.1248   -0.8456 C   0  0  0  0  0  0  0  0  0  0  0  0
    5.5648    0.1909    0.4631 C   0  0  0  0  0  0  0  0  0  0  0  0
    5.6973   -0.8818    1.2348 C   0  0  0  0  0  0  0  0  0  0  0  0
    6.4324   -1.0164    2.5368 C   0  0  0  0  0  0  0  0  0  0  0  0
    6.5919    0.0745    3.6595 C   0  0  1  0  0  0  0  0  0  0  0  0
    7.2127   -0.7464    4.8231 C   0  0  0  0  0  0  0  0  0  0  0  0
    7.1016    1.6553    3.4952 C   0  0  1  0  0  0  0  0  0  0  0  0
    6.1122    2.3591    2.7357 O   0  0  0  0  0  0  0  0  0  0  0  0
    8.5609    2.1474    2.9931 C   0  0  1  0  0  0  0  0  0  0  0  0
    9.0860    3.8675    3.1210 C   0  0  0  0  0  0  0  0  0  0  0  0
    9.7930    4.2091    4.0598 O   0  0  0  0  0  0  0  0  0  0  0  0
    8.8228    4.8996    2.1195 N   0  0  0  0  0  0  0  0  0  0  0  0
    9.6355    6.3172    1.8901 C   0  0  1  0  0  0  0  0  0  0  0  0
    9.5954    7.5298    2.9650 C   0  0  1  0  0  0  0  0  0  0  0  0
   10.4807    8.7937    2.6392 C   0  0  0  0  0  0  0  0  0  0  0  0
    8.2678    8.0491    3.1342 O   0  0  0  0  0  0  0  0  0  0  0  0
    9.6689    7.1086    0.5104 C   0  0  0  0  0  0  0  0  0  0  0  0
   10.5237    7.9682    0.2970 O   0  0  0  0  0  0  0  0  0  0  0  0
    8.6860    7.1000   -0.4436 N   0  0  0  0  0  0  0  0  0  0  0  0
    7.8866    8.3547   -0.3823 C   0  0  0  0  0  0  0  0  0  0  0  0
    9.3205    6.9708   -1.7784 C   0  0  0  0  0  0  0  0  0  0  0  0
   10.6590    6.2009   -2.0828 C   0  0  0  0  0  0  0  0  0  0  0  0
   10.5493    5.2217   -2.8542 O   0  0  0  0  0  0  0  0  0  0  0  0
   11.9403    6.4984   -1.7532 N   0  0  0  0  0  0  0  0  0  0  0  0
   12.7884    7.4173   -0.9093 C   0  0  1  0  0  0  0  0  0  0  0  0
   14.2105    6.8817   -0.7378 C   0  0  0  0  0  0  0  0  0  0  0  0
   14.7182    5.9354    0.3279 C   0  0  0  0  0  0  0  0  0  0  0  0
   16.2344    6.0734    0.5299 C   0  0  0  0  0  0  0  0  0  0  0  0
   14.0014    6.0449    1.6643 C   0  0  0  0  0  0  0  0  0  0  0  0
   12.9101    8.9040   -1.4453 C   0  0  0  0  0  0  0  0  0  0  0  0
   11.9909    9.3897   -2.1215 O   0  0  0  0  0  0  0  0  0  0  0  0
   13.9665    9.7623   -1.1792 N   0  0  0  0  0  0  0  0  0  0  0  0
   15.3430    9.7063   -0.5200 C   0  0  1  0  0  0  0  0  0  0  0  0
   16.3414   10.5854   -1.2574 C   0  0  0  0  0  0  0  0  0  0  0  0
   16.4984   10.2616   -2.7617 C   0  0  0  0  0  0  0  0  0  0  0  0
   15.3358   10.7622   -3.6111 C   0  0  0  0  0  0  0  0  0  0  0  0
   17.8170   10.8661   -3.2514 C   0  0  0  0  0  0  0  0  0  0  0  0
   15.1278    9.8271    1.0414 C   0  0  0  0  0  0  0  0  0  0  0  0
   14.0021    9.4947    1.4559 O   0  0  0  0  0  0  0  0  0  0  0  0
   16.1157   10.1124    1.9870 N   0  0  0  0  0  0  0  0  0  0  0  0
   17.5168   10.4246    1.7523 C   0  0  0  0  0  0  0  0  0  0  0  0
   15.7278   10.0206    3.4442 C   0  0  2  0  0  0  0  0  0  0  0  0
   15.2856   11.3810    4.0152 C   0  0  0  0  0  0  0  0  0  0  0  0
   13.8661   11.7979    3.5832 C   0  0  0  0  0  0  0  0  0  0  0  0
   12.7805   10.9211    4.2071 C   0  0  0  0  0  0  0  0  0  0  0  0
   13.5864   13.2481    3.9608 C   0  0  0  0  0  0  0  0  0  0  0  0
   16.7849    9.4150    4.3509 C   0  0  0  0  0  0  0  0  0  0  0  0
   17.8952    9.9413    4.5730 O   0  0  0  0  0  0  0  0  0  0  0  0
   16.6366    8.1491    4.8807 N   0  0  0  0  0  0  0  0  0  0  0  0
   15.3839    7.4187    4.9890 C   0  0  1  0  0  0  0  0  0  0  0  0
   15.6669    5.9940    4.6230 C   0  0  0  0  0  0  0  0  0  0  0  0
   14.6475    7.9600    6.2491 C   0  0  0  0  0  0  0  0  0  0  0  0
   14.2275    9.1294    6.2219 O   0  0  0  0  0  0  0  0  0  0  0  0
   14.4643    7.3586    7.4387 N   0  0  0  0  0  0  0  0  0  0  0  0
   14.8372    6.0597    7.9750 C   0  0  2  0  0  0  0  0  0  0  0  0
   13.9314    5.9129    9.0870 O   0  0  0  0  0  0  0  0  0  0  0  0
   16.2214    6.1207    8.6485 C   0  0  0  0  0  0  0  0  0  0  0  0
   17.4105    6.3526    7.7330 C   0  0  0  0  0  0  0  0  0  0  0  0
   16.2517    7.2462    9.7222 C   0  0  0  0  0  0  0  0  0  0  0  0
   14.2435    5.0444    6.9162 C   0  0  0  0  0  0  0  0  0  0  0  0
   13.2842    5.5052    6.2674 O   0  0  0  0  0  0  0  0  0  0  0  0
   14.6025    3.7239    6.7177 N   0  0  0  0  0  0  0  0  0  0  0  0
   15.8269    3.1384    7.2355 C   0  0  0  0  0  0  0  0  0  0  0  0
   13.8451    2.9012    5.6778 C   0  0  1  0  0  0  0  0  0  0  0  0
   12.3259    3.1640    5.7358 C   0  0  0  0  0  0  0  0  0  0  0  0
   11.5651    2.8520    7.0739 C   0  0  0  0  0  0  0  0  0  0  0  0
   12.1663    3.2824    8.4074 C   0  0  0  0  0  0  0  0  0  0  0  0
   10.1650    3.4817    7.0443 C   0  0  0  0  0  0  0  0  0  0  0  0
   14.5995    2.9106    4.2528 C   0  0  0  0  0  0  0  0  0  0  0  0
   15.8443    3.0008    4.2563 O   0  0  0  0  0  0  0  0  0  0  0  0
   14.1070    2.7071    2.9860 N   0  0  0  0  0  0  0  0  0  0  0  0
   12.7873    2.3388    2.4410 C   0  0  1  0  0  0  0  0  0  0  0  0
   12.5869    2.3402    0.9378 C   0  0  0  0  0  0  0  0  0  0  0  0
   13.1373    3.2235   -0.1383 C   0  0  0  0  0  0  0  0  0  0  0  0
   14.5841    2.8000   -0.4665 C   0  0  0  0  0  0  0  0  0  0  0  0
   12.3086    3.0629   -1.4192 C   0  0  0  0  0  0  0  0  0  0  0  0
   12.5417    0.8820    2.9091 C   0  0  0  0  0  0  0  0  0  0  0  0
   12.8652    0.6646    4.0872 O   0  0  0  0  0  0  0  0  0  0  0  0
   11.9240   -0.1430    2.1519 N   0  0  0  0  0  0  0  0  0  0  0  0
   11.5427   -0.2186    0.7038 C   0  0  0  0  0  0  0  0  0  0  0  0
   11.0468   -0.9913    2.9678 C   0  0  1  0  0  0  0  0  0  0  0  0
   11.7088   -1.6156    4.2312 C   0  0  0  0  0  0  0  0  0  0  0  0
   10.9822   -2.8735    4.7055 C   0  0  0  0  0  0  0  0  0  0  0  0
   13.1917   -2.0447    3.9972 C   0  0  0  0  0  0  0  0  0  0  0  0
    9.7511   -0.0760    2.8223 C   0  0  0  0  0  0  0  0  0  0  0  0
    9.0391   -0.2554    1.8202 O   0  0  0  0  0  0  0  0  0  0  0  0
    9.5682    1.1025    3.5536 N   0  0  0  0  0  0  0  0  0  0  0  0
    9.6975    0.9474    4.9810 C   0  0  0  0  0  0  0  0  0  0  0  0
    4.4858    1.1237   -1.1206 H   0  0  0  0  0  0  0  0  0  0  0  0
    3.9517   -0.5259   -0.7758 H   0  0  0  0  0  0  0  0  0  0  0  0
    5.4931   -0.2474   -1.6255 H   0  0  0  0  0  0  0  0  0  0  0  0
    6.0099    1.1297    0.7294 H   0  0  0  0  0  0  0  0  0  0  0  0
    5.3016   -1.8329    0.8716 H   0  0  0  0  0  0  0  0  0  0  0  0
    7.3715   -1.5429    2.3370 H   0  0  0  0  0  0  0  0  0  0  0  0
    5.8515   -1.8190    3.0280 H   0  0  0  0  0  0  0  0  0  0  0  0
    5.5530    0.2157    3.9936 H   0  0  0  0  0  0  0  0  0  0  0  0
    8.1391   -1.2437    4.5203 H   0  0  0  0  0  0  0  0  0  0  0  0
    6.5546   -1.5830    5.1029 H   0  0  0  0  0  0  0  0  0  0  0  0
    7.3637   -0.1653    5.7320 H   0  0  0  0  0  0  0  0  0  0  0  0
    7.0085    2.0527    4.5129 H   0  0  0  0  0  0  0  0  0  0  0  0
    5.2437    1.9914    2.9788 H   0  0  0  0  0  0  0  0  0  0  0  0
    8.5672    2.0335    1.9029 H   0  0  0  0  0  0  0  0  0  0  0  0
    8.3480    4.5863    1.2842 H   0  0  0  0  0  0  0  0  0  0  0  0
   10.6683    5.9498    1.9541 H   0  0  0  0  0  0  0  0  0  0  0  0
    9.9452    7.1607    3.9320 H   0  0  0  0  0  0  0  0  0  0  0  0
   10.0427    9.4355    1.8547 H   0  0  0  0  0  0  0  0  0  0  0  0
   11.5114    8.5437    2.3591 H   0  0  0  0  0  0  0  0  0  0  0  0
   10.5204    9.4779    3.4899 H   0  0  0  0  0  0  0  0  0  0  0  0
    8.3603    8.9333    3.5384 H   0  0  0  0  0  0  0  0  0  0  0  0
    8.0801    8.9251    0.5358 H   0  0  0  0  0  0  0  0  0  0  0  0
    6.8201    8.1385   -0.4563 H   0  0  0  0  0  0  0  0  0  0  0  0
    8.1507    9.0448   -1.1992 H   0  0  0  0  0  0  0  0  0  0  0  0
    9.4042    7.9358   -2.2881 H   0  0  0  0  0  0  0  0  0  0  0  0
    8.5348    6.4248   -2.3386 H   0  0  0  0  0  0  0  0  0  0  0  0
   12.5207    5.8571   -2.2906 H   0  0  0  0  0  0  0  0  0  0  0  0
   12.3950    7.4585    0.0959 H   0  0  0  0  0  0  0  0  0  0  0  0
   14.6293    7.7120   -0.2534 H   0  0  0  0  0  0  0  0  0  0  0  0
   14.6981    6.7188   -1.7044 H   0  0  0  0  0  0  0  0  0  0  0  0
   14.6209    4.9729   -0.1006 H   0  0  0  0  0  0  0  0  0  0  0  0
   16.4959    7.0252    1.0016 H   0  0  0  0  0  0  0  0  0  0  0  0
   16.7553    6.0132   -0.4320 H   0  0  0  0  0  0  0  0  0  0  0  0
   16.6104    5.2645    1.1648 H   0  0  0  0  0  0  0  0  0  0  0  0
   14.3084    6.9469    2.1951 H   0  0  0  0  0  0  0  0  0  0  0  0
   14.2477    5.1843    2.2839 H   0  0  0  0  0  0  0  0  0  0  0  0
   12.9148    6.0643    1.5733 H   0  0  0  0  0  0  0  0  0  0  0  0
   13.6829   10.6993   -1.4323 H   0  0  0  0  0  0  0  0  0  0  0  0
   15.8248    8.7447   -0.6899 H   0  0  0  0  0  0  0  0  0  0  0  0
   17.3259   10.3320   -0.8618 H   0  0  0  0  0  0  0  0  0  0  0  0
   16.1618   11.6464   -1.0696 H   0  0  0  0  0  0  0  0  0  0  0  0
   16.5759    9.1727   -2.8934 H   0  0  0  0  0  0  0  0  0  0  0  0
   14.9690   11.7284   -3.2522 H   0  0  0  0  0  0  0  0  0  0  0  0
   14.5068   10.0488   -3.5947 H   0  0  0  0  0  0  0  0  0  0  0  0
   15.6228   10.8677   -4.6606 H   0  0  0  0  0  0  0  0  0  0  0  0
   17.8542   11.9408   -3.0479 H   0  0  0  0  0  0  0  0  0  0  0  0
   17.9507   10.7072   -4.3252 H   0  0  0  0  0  0  0  0  0  0  0  0
   18.6669   10.3957   -2.7424 H   0  0  0  0  0  0  0  0  0  0  0  0
   17.7050   10.8846    0.7973 H   0  0  0  0  0  0  0  0  0  0  0  0
   18.1042    9.5056    1.8497 H   0  0  0  0  0  0  0  0  0  0  0  0
   17.8541   11.1646    2.4828 H   0  0  0  0  0  0  0  0  0  0  0  0
   14.8599    9.3839    3.4719 H   0  0  0  0  0  0  0  0  0  0  0  0
   15.3168   11.3338    5.1112 H   0  0  0  0  0  0  0  0  0  0  0  0
   16.0105   12.1502    3.7232 H   0  0  0  0  0  0  0  0  0  0  0  0
   13.7905   11.7332    2.4941 H   0  0  0  0  0  0  0  0  0  0  0  0
   12.8245   10.9471    5.3003 H   0  0  0  0  0  0  0  0  0  0  0  0
   12.8593    9.8775    3.8934 H   0  0  0  0  0  0  0  0  0  0  0  0
   11.7896   11.2814    3.9158 H   0  0  0  0  0  0  0  0  0  0  0  0
   13.4346   13.3549    5.0395 H   0  0  0  0  0  0  0  0  0  0  0  0
   12.6773   13.5900    3.4547 H   0  0  0  0  0  0  0  0  0  0  0  0
   14.4077   13.9019    3.6558 H   0  0  0  0  0  0  0  0  0  0  0  0
   17.4281    7.8748    5.4200 H   0  0  0  0  0  0  0  0  0  0  0  0
   14.7048    7.7287    4.1938 H   0  0  0  0  0  0  0  0  0  0  0  0
   16.2494    5.4522    5.3607 H   0  0  0  0  0  0  0  0  0  0  0  0
   16.2409    5.9300    3.6885 H   0  0  0  0  0  0  0  0  0  0  0  0
   14.7337    5.4717    4.4314 H   0  0  0  0  0  0  0  0  0  0  0  0
   13.9413    7.9531    8.0670 H   0  0  0  0  0  0  0  0  0  0  0  0
   13.0652    6.2074    8.7539 H   0  0  0  0  0  0  0  0  0  0  0  0
   16.3942    5.1960    9.2065 H   0  0  0  0  0  0  0  0  0  0  0  0
   17.3893    7.3657    7.3272 H   0  0  0  0  0  0  0  0  0  0  0  0
   17.4640    5.6270    6.9271 H   0  0  0  0  0  0  0  0  0  0  0  0
   18.3446    6.2646    8.2966 H   0  0  0  0  0  0  0  0  0  0  0  0
   16.0357    8.2282    9.2827 H   0  0  0  0  0  0  0  0  0  0  0  0
   17.2350    7.3126   10.1963 H   0  0  0  0  0  0  0  0  0  0  0  0
   15.5181    7.0701   10.5157 H   0  0  0  0  0  0  0  0  0  0  0  0
   16.0217    3.4872    8.2448 H   0  0  0  0  0  0  0  0  0  0  0  0
   16.6638    3.4164    6.5906 H   0  0  0  0  0  0  0  0  0  0  0  0
   15.7439    2.0489    7.2735 H   0  0  0  0  0  0  0  0  0  0  0  0
   13.9659    1.8611    6.0154 H   0  0  0  0  0  0  0  0  0  0  0  0
   11.8816    2.5517    4.9672 H   0  0  0  0  0  0  0  0  0  0  0  0
   12.0533    4.1467    5.3501 H   0  0  0  0  0  0  0  0  0  0  0  0
   11.4661    1.7624    7.1433 H   0  0  0  0  0  0  0  0  0  0  0  0
   12.1505    4.3678    8.4984 H   0  0  0  0  0  0  0  0  0  0  0  0
   13.1717    2.8968    8.5733 H   0  0  0  0  0  0  0  0  0  0  0  0
   11.5530    2.9050    9.2351 H   0  0  0  0  0  0  0  0  0  0  0  0
   10.2182    4.5745    7.0867 H   0  0  0  0  0  0  0  0  0  0  0  0
    9.5574    3.1316    7.8860 H   0  0  0  0  0  0  0  0  0  0  0  0
    9.6209    3.2353    6.1410 H   0  0  0  0  0  0  0  0  0  0  0  0
   14.8867    2.5829    2.3555 H   0  0  0  0  0  0  0  0  0  0  0  0
   12.0521    2.9986    2.9084 H   0  0  0  0  0  0  0  0  0  0  0  0
   11.4991    2.3480    0.8093 H   0  0  0  0  0  0  0  0  0  0  0  0
   13.0343    1.4106    0.6297 H   0  0  0  0  0  0  0  0  0  0  0  0
   12.9727    4.2419    0.1893 H   0  0  0  0  0  0  0  0  0  0  0  0
   14.6473    1.7320   -0.7039 H   0  0  0  0  0  0  0  0  0  0  0  0
   15.2589    2.9824    0.3743 H   0  0  0  0  0  0  0  0  0  0  0  0
   14.9717    3.3338   -1.3410 H   0  0  0  0  0  0  0  0  0  0  0  0
   12.3046    2.0272   -1.7716 H   0  0  0  0  0  0  0  0  0  0  0  0
   12.7122    3.6903   -2.2192 H   0  0  0  0  0  0  0  0  0  0  0  0
   11.2695    3.3592   -1.2404 H   0  0  0  0  0  0  0  0  0  0  0  0
   12.4016   -0.1628    0.0366 H   0  0  0  0  0  0  0  0  0  0  0  0
   10.8033    0.5499    0.4561 H   0  0  0  0  0  0  0  0  0  0  0  0
   11.0821   -1.1854    0.4760 H   0  0  0  0  0  0  0  0  0  0  0  0
   10.8136   -1.8785    2.3593 H   0  0  0  0  0  0  0  0  0  0  0  0
   11.6770   -0.9154    5.0700 H   0  0  0  0  0  0  0  0  0  0  0  0
   11.1413   -3.7076    4.0130 H   0  0  0  0  0  0  0  0  0  0  0  0
    9.9093   -2.7073    4.8062 H   0  0  0  0  0  0  0  0  0  0  0  0
   11.3766   -3.1810    5.6826 H   0  0  0  0  0  0  0  0  0  0  0  0
   13.2674   -3.0100    3.4891 H   0  0  0  0  0  0  0  0  0  0  0  0
   13.7096   -2.1301    4.9629 H   0  0  0  0  0  0  0  0  0  0  0  0
   13.7861   -1.3480    3.3984 H   0  0  0  0  0  0  0  0  0  0  0  0
   10.6830    1.2228    5.2864 H   0  0  0  0  0  0  0  0  0  0  0  0
    9.6217   -0.0974    5.2853 H   0  0  0  0  0  0  0  0  0  0  0  0
    8.9286    1.5014    5.5093 H   0  0  0  0  0  0  0  0  0  0  0  0
  1  2  1  0  0  0  0
  1 89  1  0  0  0  0
  1 90  1  0  0  0  0
  1 91  1  0  0  0  0
  2  3  2  0  0  0  0
  2 92  1  0  0  0  0
  3  4  1  0  0  0  0
  3 93  1  0  0  0  0
  4  5  1  0  0  0  0
  4 94  1  0  0  0  0
  4 95  1  0  0  0  0
  5  6  1  0  0  0  0
  5  7  1  0  0  0  0
  5 96  1  1  0  0  0
  6 97  1  0  0  0  0
  6 98  1  0  0  0  0
  6 99  1  0  0  0  0
  7  8  1  0  0  0  0
  7100  1  6  0  0  0
  8101  1  0  0  0  0
  9 10  1  0  0  0  0
  9 87  1  0  0  0  0
  9  7  1  0  0  0  0
  9102  1  6  0  0  0
 10 11  2  0  0  0  0
 10 12  1  0  0  0  0
 12 13  1  0  0  0  0
 12103  1  0  0  0  0
 13 14  1  0  0  0  0
 13 17  1  0  0  0  0
 13104  1  6  0  0  0
 14 15  1  0  0  0  0
 14 16  1  0  0  0  0
 14105  1  1  0  0  0
 15106  1  0  0  0  0
 15107  1  0  0  0  0
 15108  1  0  0  0  0
 16109  1  0  0  0  0
 17 18  2  0  0  0  0
 17 19  1  0  0  0  0
 19 20  1  0  0  0  0
 19 21  1  0  0  0  0
 20110  1  0  0  0  0
 20111  1  0  0  0  0
 20112  1  0  0  0  0
 21 22  1  0  0  0  0
 21113  1  0  0  0  0
 21114  1  0  0  0  0
 22 23  2  0  0  0  0
 22 24  1  0  0  0  0
 24 25  1  0  0  0  0
 24115  1  0  0  0  0
 25 26  1  0  0  0  0
 25 30  1  0  0  0  0
 25116  1  1  0  0  0
 26 27  1  0  0  0  0
 26117  1  0  0  0  0
 26118  1  0  0  0  0
 27 28  1  0  0  0  0
 27 29  1  0  0  0  0
 27119  1  0  0  0  0
 28120  1  0  0  0  0
 28121  1  0  0  0  0
 28122  1  0  0  0  0
 29123  1  0  0  0  0
 29124  1  0  0  0  0
 29125  1  0  0  0  0
 30 31  2  0  0  0  0
 30 32  1  0  0  0  0
 32 33  1  0  0  0  0
 32126  1  0  0  0  0
 33 34  1  0  0  0  0
 33 38  1  0  0  0  0
 33127  1  6  0  0  0
 34 35  1  0  0  0  0
 34128  1  0  0  0  0
 34129  1  0  0  0  0
 35 36  1  0  0  0  0
 35 37  1  0  0  0  0
 35130  1  0  0  0  0
 36131  1  0  0  0  0
 36132  1  0  0  0  0
 36133  1  0  0  0  0
 37134  1  0  0  0  0
 37135  1  0  0  0  0
 37136  1  0  0  0  0
 38 39  2  0  0  0  0
 38 40  1  0  0  0  0
 40 41  1  0  0  0  0
 40 42  1  0  0  0  0
 41137  1  0  0  0  0
 41138  1  0  0  0  0
 41139  1  0  0  0  0
 42 47  1  0  0  0  0
 42 43  1  0  0  0  0
 42140  1  1  0  0  0
 43 44  1  0  0  0  0
 43141  1  0  0  0  0
 43142  1  0  0  0  0
 44 45  1  0  0  0  0
 44 46  1  0  0  0  0
 44143  1  0  0  0  0
 45144  1  0  0  0  0
 45145  1  0  0  0  0
 45146  1  0  0  0  0
 46147  1  0  0  0  0
 46148  1  0  0  0  0
 46149  1  0  0  0  0
 47 48  2  0  0  0  0
 47 49  1  0  0  0  0
 49 50  1  0  0  0  0
 49150  1  0  0  0  0
 50 51  1  0  0  0  0
 50 52  1  0  0  0  0
 50151  1  6  0  0  0
 51152  1  0  0  0  0
 51153  1  0  0  0  0
 51154  1  0  0  0  0
 52 53  2  0  0  0  0
 52 54  1  0  0  0  0
 54 55  1  0  0  0  0
 54155  1  0  0  0  0
 55 56  1  1  0  0  0
 55 57  1  0  0  0  0
 55 60  1  0  0  0  0
 56156  1  0  0  0  0
 57 58  1  0  0  0  0
 57 59  1  0  0  0  0
 57157  1  0  0  0  0
 58158  1  0  0  0  0
 58159  1  0  0  0  0
 58160  1  0  0  0  0
 59161  1  0  0  0  0
 59162  1  0  0  0  0
 59163  1  0  0  0  0
 60 61  2  0  0  0  0
 60 62  1  0  0  0  0
 62 63  1  0  0  0  0
 62 64  1  0  0  0  0
 63164  1  0  0  0  0
 63165  1  0  0  0  0
 63166  1  0  0  0  0
 64 65  1  0  0  0  0
 64 69  1  0  0  0  0
 64167  1  1  0  0  0
 65 66  1  0  0  0  0
 65168  1  0  0  0  0
 65169  1  0  0  0  0
 66 67  1  0  0  0  0
 66 68  1  0  0  0  0
 66170  1  0  0  0  0
 67171  1  0  0  0  0
 67172  1  0  0  0  0
 67173  1  0  0  0  0
 68174  1  0  0  0  0
 68175  1  0  0  0  0
 68176  1  0  0  0  0
 69 70  2  0  0  0  0
 69 71  1  0  0  0  0
 71 72  1  0  0  0  0
 71177  1  0  0  0  0
 72 73  1  0  0  0  0
 72 77  1  0  0  0  0
 72178  1  1  0  0  0
 73 74  1  0  0  0  0
 73179  1  0  0  0  0
 73180  1  0  0  0  0
 74 75  1  0  0  0  0
 74 76  1  0  0  0  0
 74181  1  0  0  0  0
 75182  1  0  0  0  0
 75183  1  0  0  0  0
 75184  1  0  0  0  0
 76185  1  0  0  0  0
 76186  1  0  0  0  0
 76187  1  0  0  0  0
 77 78  2  0  0  0  0
 77 79  1  0  0  0  0
 79 80  1  0  0  0  0
 79 81  1  0  0  0  0
 80188  1  0  0  0  0
 80189  1  0  0  0  0
 80190  1  0  0  0  0
 81 82  1  0  0  0  0
 81 85  1  0  0  0  0
 81191  1  6  0  0  0
 82 83  1  0  0  0  0
 82 84  1  0  0  0  0
 82192  1  0  0  0  0
 83193  1  0  0  0  0
 83194  1  0  0  0  0
 83195  1  0  0  0  0
 84196  1  0  0  0  0
 84197  1  0  0  0  0
 84198  1  0  0  0  0
 85 86  2  0  0  0  0
 85 87  1  0  0  0  0
 87 88  1  0  0  0  0
 88199  1  0  0  0  0
 88200  1  0  0  0  0
 88201  1  0  0  0  0
M  END
>  <Energy>
684.768

$$$$