70691033
  -OEChem-03242010103D

 66 68  0     1  0  0  0  0  0999 V2000
    4.4833    0.0501    1.4476 O   0  0  0  0  0  0  0  0  0  0  0  0
    4.4027    2.0706   -0.4622 O   0  0  0  0  0  0  0  0  0  0  0  0
   -0.4910    1.9777    1.6061 O   0  0  0  0  0  0  0  0  0  0  0  0
   -0.6388    3.6621   -0.5999 O   0  0  0  0  0  0  0  0  0  0  0  0
   -3.5020   -1.8693    0.3370 N   0  0  1  0  0  0  0  0  0  0  0  0
    1.5308   -4.1210   -2.1201 N   0  0  0  0  0  0  0  0  0  0  0  0
    0.7434   -2.2161   -0.4764 C   0  0  2  0  0  0  0  0  0  0  0  0
    1.0336   -2.6120    0.9963 C   0  0  0  0  0  0  0  0  0  0  0  0
    1.6232   -0.9954   -0.6065 C   0  0  0  0  0  0  0  0  0  0  0  0
   -0.7441   -1.9266   -0.6831 C   0  0  0  0  0  0  0  0  0  0  0  0
    2.4704   -2.1581    1.3048 C   0  0  0  0  0  0  0  0  0  0  0  0
    2.5935   -0.9681    0.4066 C   0  0  0  0  0  0  0  0  0  0  0  0
   -1.5867   -3.1780   -0.4545 C   0  0  0  0  0  0  0  0  0  0  0  0
    1.5839    0.0034   -1.5697 C   0  0  0  0  0  0  0  0  0  0  0  0
    3.5380    0.0434    0.4714 C   0  0  0  0  0  0  0  0  0  0  0  0
   -3.0733   -2.8729   -0.6301 C   0  0  0  0  0  0  0  0  0  0  0  0
    1.1842   -3.2827   -1.3967 C   0  0  0  0  0  0  0  0  0  0  0  0
    3.4953    1.0531   -0.4913 C   0  0  0  0  0  0  0  0  0  0  0  0
    2.5251    1.0334   -1.5042 C   0  0  0  0  0  0  0  0  0  0  0  0
   -4.7295   -1.2108   -0.1131 C   0  0  0  0  0  0  0  0  0  0  0  0
   -3.7049   -2.4760    1.6538 C   0  0  0  0  0  0  0  0  0  0  0  0
   -4.9109    0.1411    0.5776 C   0  0  0  0  0  0  0  0  0  0  0  0
    5.7115   -0.6229    1.1695 C   0  0  0  0  0  0  0  0  0  0  0  0
   -3.7714    1.0787    0.2670 C   0  0  0  0  0  0  0  0  0  0  0  0
    4.0525    3.2276    0.2938 C   0  0  0  0  0  0  0  0  0  0  0  0
   -2.6431    1.1008    1.0869 C   0  0  0  0  0  0  0  0  0  0  0  0
   -3.8453    1.9233   -0.8406 C   0  0  0  0  0  0  0  0  0  0  0  0
   -1.5886    1.9673    0.7990 C   0  0  0  0  0  0  0  0  0  0  0  0
   -2.7908    2.7900   -1.1283 C   0  0  0  0  0  0  0  0  0  0  0  0
   -1.6624    2.8119   -0.3085 C   0  0  0  0  0  0  0  0  0  0  0  0
   -0.4955    1.0833    2.7172 C   0  0  0  0  0  0  0  0  0  0  0  0
   -0.7932    4.4921   -1.7497 C   0  0  0  0  0  0  0  0  0  0  0  0
    0.3542   -2.0790    1.6761 H   0  0  0  0  0  0  0  0  0  0  0  0
    0.9103   -3.6828    1.1967 H   0  0  0  0  0  0  0  0  0  0  0  0
   -1.0502   -1.1214   -0.0065 H   0  0  0  0  0  0  0  0  0  0  0  0
   -0.9255   -1.5575   -1.7017 H   0  0  0  0  0  0  0  0  0  0  0  0
    3.1989   -2.9249    1.0226 H   0  0  0  0  0  0  0  0  0  0  0  0
    2.5848   -1.9019    2.3618 H   0  0  0  0  0  0  0  0  0  0  0  0
   -1.3292   -3.9515   -1.1877 H   0  0  0  0  0  0  0  0  0  0  0  0
   -1.3975   -3.6167    0.5298 H   0  0  0  0  0  0  0  0  0  0  0  0
    0.8454   -0.0073   -2.3642 H   0  0  0  0  0  0  0  0  0  0  0  0
   -3.6654   -3.7937   -0.5521 H   0  0  0  0  0  0  0  0  0  0  0  0
   -3.2054   -2.5085   -1.6576 H   0  0  0  0  0  0  0  0  0  0  0  0
    2.5033    1.8226   -2.2518 H   0  0  0  0  0  0  0  0  0  0  0  0
   -4.6877   -1.0197   -1.1941 H   0  0  0  0  0  0  0  0  0  0  0  0
   -5.6105   -1.8440    0.0533 H   0  0  0  0  0  0  0  0  0  0  0  0
   -2.7791   -2.9142    2.0396 H   0  0  0  0  0  0  0  0  0  0  0  0
   -4.4707   -3.2605    1.6358 H   0  0  0  0  0  0  0  0  0  0  0  0
   -4.0020   -1.7337    2.4009 H   0  0  0  0  0  0  0  0  0  0  0  0
   -5.0305    0.0393    1.6624 H   0  0  0  0  0  0  0  0  0  0  0  0
   -5.8503    0.5924    0.2317 H   0  0  0  0  0  0  0  0  0  0  0  0
    6.3573   -0.5317    2.0471 H   0  0  0  0  0  0  0  0  0  0  0  0
    6.2160   -0.1624    0.3142 H   0  0  0  0  0  0  0  0  0  0  0  0
    5.5342   -1.6849    0.9740 H   0  0  0  0  0  0  0  0  0  0  0  0
    4.8733    3.9462    0.2210 H   0  0  0  0  0  0  0  0  0  0  0  0
    3.9056    2.9695    1.3474 H   0  0  0  0  0  0  0  0  0  0  0  0
    3.1456    3.6895   -0.1095 H   0  0  0  0  0  0  0  0  0  0  0  0
   -2.6439    0.4325    1.9408 H   0  0  0  0  0  0  0  0  0  0  0  0
   -4.7184    1.9130   -1.4877 H   0  0  0  0  0  0  0  0  0  0  0  0
   -2.9169    3.4164   -2.0046 H   0  0  0  0  0  0  0  0  0  0  0  0
    0.4583    1.2139    3.2391 H   0  0  0  0  0  0  0  0  0  0  0  0
   -0.5394    0.0381    2.3958 H   0  0  0  0  0  0  0  0  0  0  0  0
   -1.2869    1.3332    3.4320 H   0  0  0  0  0  0  0  0  0  0  0  0
   -0.8597    3.8996   -2.6686 H   0  0  0  0  0  0  0  0  0  0  0  0
   -1.6342    5.1848   -1.6377 H   0  0  0  0  0  0  0  0  0  0  0  0
    0.1127    5.1020   -1.8302 H   0  0  0  0  0  0  0  0  0  0  0  0
  1 15  1  0  0  0  0
  1 23  1  0  0  0  0
  2 18  1  0  0  0  0
  2 25  1  0  0  0  0
  3 28  1  0  0  0  0
  3 31  1  0  0  0  0
  4 30  1  0  0  0  0
  4 32  1  0  0  0  0
  5 16  1  0  0  0  0
  5 20  1  0  0  0  0
  5 21  1  0  0  0  0
  6 17  3  0  0  0  0
  7  8  1  0  0  0  0
  7  9  1  0  0  0  0
  7 10  1  0  0  0  0
  7 17  1  0  0  0  0
  8 11  1  0  0  0  0
  8 33  1  0  0  0  0
  8 34  1  0  0  0  0
  9 12  2  0  0  0  0
  9 14  1  0  0  0  0
 10 13  1  0  0  0  0
 10 35  1  0  0  0  0
 10 36  1  0  0  0  0
 11 12  1  0  0  0  0
 11 37  1  0  0  0  0
 11 38  1  0  0  0  0
 12 15  1  0  0  0  0
 13 16  1  0  0  0  0
 13 39  1  0  0  0  0
 13 40  1  0  0  0  0
 14 19  2  0  0  0  0
 14 41  1  0  0  0  0
 15 18  2  0  0  0  0
 16 42  1  0  0  0  0
 16 43  1  0  0  0  0
 18 19  1  0  0  0  0
 19 44  1  0  0  0  0
 20 22  1  0  0  0  0
 20 45  1  0  0  0  0
 20 46  1  0  0  0  0
 21 47  1  0  0  0  0
 21 48  1  0  0  0  0
 21 49  1  0  0  0  0
 22 24  1  0  0  0  0
 22 50  1  0  0  0  0
 22 51  1  0  0  0  0
 23 52  1  0  0  0  0
 23 53  1  0  0  0  0
 23 54  1  0  0  0  0
 24 26  2  0  0  0  0
 24 27  1  0  0  0  0
 25 55  1  0  0  0  0
 25 56  1  0  0  0  0
 25 57  1  0  0  0  0
 26 28  1  0  0  0  0
 26 58  1  0  0  0  0
 27 29  2  0  0  0  0
 27 59  1  0  0  0  0
 28 30  2  0  0  0  0
 29 30  1  0  0  0  0
 29 60  1  0  0  0  0
 31 61  1  0  0  0  0
 31 62  1  0  0  0  0
 31 63  1  0  0  0  0
 32 64  1  0  0  0  0
 32 65  1  0  0  0  0
 32 66  1  0  0  0  0
M  END
> <PUBCHEM_COMPOUND_CID>
70691033

> <PUBCHEM_CONFORMER_RMSD>
1

> <PUBCHEM_CONFORMER_DIVERSEORDER>
1
19
225
243
136
112
84
119
18
306
140
15
266
241
143
100
54
9
14
182
296
124
248
176
39
242
116
149
141
129
55
180
131
12
265
11
134
257
236
219
261
35
4
154
294
158
233
200
240
205
81
211
157
297
186
224
293
107
70
214
197
102
152
193
56
68
130
254
203
281
155
262
185
221
272
171
123
276
86
208
95
227
194
151
59
234
244
58
292
46
159
63
238
285
61
223
307
62
178
128
177
289
16
170
308
80
247
287
264
311
169
48
165
192
50
167
117
77
69
229
34
298
290
133
217
79
268
249
184
53
201
85
199
57
109
103
74
3
235
139
52
164
161
204
25
305
190
213
222
304
258
30
110
209
104
269
301
72
96
309
239
38
220
271
274
286
37
273
66
6
270
179
99
90
92
228
288
113
28
120
267
212
135
191
7
132
89
310
10
188
44
226
75
263
283
196
91
216
166
278
150
36
153
82
60
173
275
260
67
83
2
284
215
71
195
282
183
246
295
172
33
106
17
156
108
168
97
148
49
111
303
32
259
23
255
64
98
21
47
231
237
138
206
302
312
181
147
5
27
115
22
142
29
41
45
146
125
291
118
230
251
160
207
253
76
13
252
202
73
101
300
31
174
277
93
51
87
145
189
26
94
121
127
40
256
43
187
78
105
218
24
65
198
126
88
210
8
232
20
42
163
162
137
144
250
245
280
114
279
175
122
299

> <PUBCHEM_MMFF94_PARTIAL_CHARGES>
34
1 -0.36
11 0.14
12 -0.14
14 -0.15
15 0.08
16 0.27
17 0.36
18 0.08
19 -0.15
2 -0.36
20 0.27
21 0.27
22 0.14
23 0.28
24 -0.14
25 0.28
26 -0.15
27 -0.15
28 0.08
29 -0.15
3 -0.36
30 0.08
31 0.28
32 0.28
4 -0.36
41 0.15
44 0.15
5 -0.81
58 0.15
59 0.15
6 -0.56
60 0.15
7 0.34
9 -0.14

> <PUBCHEM_EFFECTIVE_ROTOR_COUNT>
11.6

> <PUBCHEM_PHARMACOPHORE_FEATURES>
9
1 1 acceptor
1 2 acceptor
1 3 acceptor
1 4 acceptor
1 5 cation
1 6 acceptor
5 7 8 9 11 12 rings
6 24 26 27 28 29 30 rings
6 9 12 14 15 18 19 rings

> <PUBCHEM_HEAVY_ATOM_COUNT>
32

> <PUBCHEM_ATOM_DEF_STEREO_COUNT>
1

> <PUBCHEM_ATOM_UDEF_STEREO_COUNT>
0

> <PUBCHEM_BOND_DEF_STEREO_COUNT>
0

> <PUBCHEM_BOND_UDEF_STEREO_COUNT>
0

> <PUBCHEM_ISOTOPIC_ATOM_COUNT>
0

> <PUBCHEM_COMPONENT_COUNT>
1

> <PUBCHEM_CACTVS_TAUTO_COUNT>
1

> <PUBCHEM_CONFORMER_ID>
0436A8D900000001

> <PUBCHEM_MMFF94_ENERGY>
121.895

> <PUBCHEM_FEATURE_SELFOVERLAP>
45.763

> <PUBCHEM_SHAPE_FINGERPRINT>
10670039 82 18338249257491784446
10675989 125 15031451905486315463
11370993 70 17904189344161977973
11513181 2 17703238308698274527
12156800 1 17395235496231919381
12422481 6 18122320434222231570
12467345 10 18261104141305294930
13122387 1 17976825281384557959
13402501 40 18343577439474452299
13773456 30 17831563293780391181
14117953 113 18337671893475429149
14725015 67 17756147783220964449
14840074 17 18194419993989157601
15297060 5 17986977291070965560
15975801 100 17968392186499059084
20715895 44 17901938648487574109
20764821 26 18198892794321782129
23559900 14 18125728876811748607
3052486 1 18193272125024181680
3504750 166 18269533058143794062
392239 28 18413110588652674305
463206 1 18187936113785676769
469060 322 18265071282601218043
6608658 132 18052250997118622062

> <PUBCHEM_SHAPE_MULTIPOLES>
625.11
9.27
5.53
1.84
2.26
1.14
0.37
1
2.3
-1.29
-2.46
0.37
-0.09
0.68

> <PUBCHEM_SHAPE_SELFOVERLAP>
1317.543

> <PUBCHEM_SHAPE_VOLUME>
354.2

> <PUBCHEM_COORDINATE_TYPE>
2
5
10

$$$$