5378832
  -OEChem-03242010103D

 37 39  0     0  0  0  0  0  0999 V2000
   -1.0281    0.7369   -0.1002 O   0  0  0  0  0  0  0  0  0  0  0  0
    0.0248   -2.7853   -0.3720 O   0  0  0  0  0  0  0  0  0  0  0  0
    4.0827    0.2722    1.8334 O   0  0  0  0  0  0  0  0  0  0  0  0
    5.2435    0.6513   -0.6636 O   0  0  0  0  0  0  0  0  0  0  0  0
   -2.7425   -2.9592   -0.1565 O   0  0  0  0  0  0  0  0  0  0  0  0
   -5.2442    2.8638    0.3893 O   0  0  0  0  0  0  0  0  0  0  0  0
   -0.2655   -0.4116   -0.2424 C   0  0  0  0  0  0  0  0  0  0  0  0
    1.1780   -0.1333   -0.3491 C   0  0  0  0  0  0  0  0  0  0  0  0
   -3.0355   -0.6241   -0.0048 C   0  0  0  0  0  0  0  0  0  0  0  0
   -2.3886    0.6094    0.0098 C   0  0  0  0  0  0  0  0  0  0  0  0
   -0.7647   -1.6610   -0.2620 C   0  0  0  0  0  0  0  0  0  0  0  0
   -2.2309   -1.8476   -0.1427 C   0  0  0  0  0  0  0  0  0  0  0  0
    1.9620   -0.0602    0.8025 C   0  0  0  0  0  0  0  0  0  0  0  0
    1.7612    0.0574   -1.6022 C   0  0  0  0  0  0  0  0  0  0  0  0
    3.3279    0.2032    0.7014 C   0  0  0  0  0  0  0  0  0  0  0  0
   -4.4260   -0.6930    0.1120 C   0  0  0  0  0  0  0  0  0  0  0  0
   -3.1293    1.7843    0.1428 C   0  0  0  0  0  0  0  0  0  0  0  0
    3.9106    0.3938   -0.5516 C   0  0  0  0  0  0  0  0  0  0  0  0
    3.1272    0.3209   -1.7035 C   0  0  0  0  0  0  0  0  0  0  0  0
   -4.5178    1.7197    0.2598 C   0  0  0  0  0  0  0  0  0  0  0  0
   -5.1648    0.4835    0.2443 C   0  0  0  0  0  0  0  0  0  0  0  0
    4.6763   -0.9411    2.2915 C   0  0  0  0  0  0  0  0  0  0  0  0
    5.6437    2.0201   -0.6362 C   0  0  0  0  0  0  0  0  0  0  0  0
    1.5147   -0.2064    1.7835 H   0  0  0  0  0  0  0  0  0  0  0  0
    1.1634    0.0039   -2.5088 H   0  0  0  0  0  0  0  0  0  0  0  0
   -4.9474   -1.6461    0.1027 H   0  0  0  0  0  0  0  0  0  0  0  0
   -2.6276    2.7486    0.1551 H   0  0  0  0  0  0  0  0  0  0  0  0
    3.5744    0.4677   -2.6828 H   0  0  0  0  0  0  0  0  0  0  0  0
   -6.2462    0.4230    0.3349 H   0  0  0  0  0  0  0  0  0  0  0  0
    0.9582   -2.5274   -0.4382 H   0  0  0  0  0  0  0  0  0  0  0  0
   -6.1866    2.6331    0.4579 H   0  0  0  0  0  0  0  0  0  0  0  0
    5.3574   -1.3461    1.5364 H   0  0  0  0  0  0  0  0  0  0  0  0
    3.9040   -1.6776    2.5351 H   0  0  0  0  0  0  0  0  0  0  0  0
    5.2487   -0.7219    3.1970 H   0  0  0  0  0  0  0  0  0  0  0  0
    5.3550    2.4872    0.3106 H   0  0  0  0  0  0  0  0  0  0  0  0
    5.2008    2.5658   -1.4754 H   0  0  0  0  0  0  0  0  0  0  0  0
    6.7325    2.0605   -0.7282 H   0  0  0  0  0  0  0  0  0  0  0  0
  1  7  1  0  0  0  0
  1 10  1  0  0  0  0
  2 11  1  0  0  0  0
  2 30  1  0  0  0  0
  3 15  1  0  0  0  0
  3 22  1  0  0  0  0
  4 18  1  0  0  0  0
  4 23  1  0  0  0  0
  5 12  2  0  0  0  0
  6 20  1  0  0  0  0
  6 31  1  0  0  0  0
  7  8  1  0  0  0  0
  7 11  2  0  0  0  0
  8 13  2  0  0  0  0
  8 14  1  0  0  0  0
  9 10  2  0  0  0  0
  9 12  1  0  0  0  0
  9 16  1  0  0  0  0
 10 17  1  0  0  0  0
 11 12  1  0  0  0  0
 13 15  1  0  0  0  0
 13 24  1  0  0  0  0
 14 19  2  0  0  0  0
 14 25  1  0  0  0  0
 15 18  2  0  0  0  0
 16 21  2  0  0  0  0
 16 26  1  0  0  0  0
 17 20  2  0  0  0  0
 17 27  1  0  0  0  0
 18 19  1  0  0  0  0
 19 28  1  0  0  0  0
 20 21  1  0  0  0  0
 21 29  1  0  0  0  0
 22 32  1  0  0  0  0
 22 33  1  0  0  0  0
 22 34  1  0  0  0  0
 23 35  1  0  0  0  0
 23 36  1  0  0  0  0
 23 37  1  0  0  0  0
M  END
> <PUBCHEM_COMPOUND_CID>
5378832

> <PUBCHEM_CONFORMER_RMSD>
0.6

> <PUBCHEM_CONFORMER_DIVERSEORDER>
2
8
7
3
1
6
5
4

> <PUBCHEM_MMFF94_PARTIAL_CHARGES>
31
1 -0.16
10 0.08
11 0.09
12 0.47
13 -0.15
14 -0.15
15 0.08
16 -0.15
17 -0.15
18 0.08
19 -0.15
2 -0.53
20 0.08
21 -0.15
22 0.28
23 0.28
24 0.15
25 0.15
26 0.15
27 0.15
28 0.15
29 0.15
3 -0.36
30 0.45
31 0.45
4 -0.36
5 -0.57
6 -0.53
7 0.05
8 0.03
9 0.09

> <PUBCHEM_EFFECTIVE_ROTOR_COUNT>
3

> <PUBCHEM_PHARMACOPHORE_FEATURES>
9
1 1 acceptor
1 2 donor
1 3 acceptor
1 4 acceptor
1 5 acceptor
1 6 donor
6 1 7 9 10 11 12 rings
6 8 13 14 15 18 19 rings
6 9 10 16 17 20 21 rings

> <PUBCHEM_HEAVY_ATOM_COUNT>
23

> <PUBCHEM_ATOM_DEF_STEREO_COUNT>
0

> <PUBCHEM_ATOM_UDEF_STEREO_COUNT>
0

> <PUBCHEM_BOND_DEF_STEREO_COUNT>
0

> <PUBCHEM_BOND_UDEF_STEREO_COUNT>
0

> <PUBCHEM_ISOTOPIC_ATOM_COUNT>
0

> <PUBCHEM_COMPONENT_COUNT>
1

> <PUBCHEM_CACTVS_TAUTO_COUNT>
10

> <PUBCHEM_CONFORMER_ID>
0052131000000002

> <PUBCHEM_MMFF94_ENERGY>
89.4104

> <PUBCHEM_FEATURE_SELFOVERLAP>
45.705

> <PUBCHEM_SHAPE_FINGERPRINT>
10319926 262 18271794736276005682
10366900 7 16845301535695495664
10411042 1 17763749089356843791
10498660 4 18342464690536215905
10912923 1 18113613508334722496
11552529 35 16952272033998350939
11725454 13 17202459183042748242
11796584 16 18272378555765954358
12107183 9 18117831097763759658
12236239 1 17894912957721001926
12390115 104 18129678404620929009
12403259 415 17417813993140797218
12403814 3 17603865598825540869
12422481 6 17824533084977138311
12596602 18 17603303769473618033
12633257 1 18410845560624605808
12788726 201 17609517264006265995
12969540 114 16917344827286697253
13140716 1 18122631819387555819
14341114 328 17822011999583503721
14739800 52 18195234745376071608
15238133 3 18342449332123302800
15375358 24 17704067399940595865
173720 79 18261106357977696639
1813 80 16951403222729344442
20511986 3 17895180138756810420
20645477 56 18272376386321484071
20645477 70 16343437115366023758
20739085 24 17168144499461853982
21033648 29 17489584584658193480
21065198 48 18114177557894795026
21065201 7 18272376403285588894
212916 134 18343012277048461891
21623969 137 14634867565866791216
23402539 116 18343582962190381004
23557571 272 18059866094245223149
23559900 14 18201730522506716654
341906 21 18343860026409758200
3472631 163 18410298020628935436
38570 142 16880229782047600940
474 4 17097503248178452244
495365 180 17489305240012051398
5104073 3 18040716969729264432
5265222 85 18127425656046694462
573450 72 18334569165876571842
7064713 232 18336826390582215485
77492 1 17822009856363369142
7808743 9 18411141354663611068
9862522 239 17968928692037703293
9981440 41 18336272271398300195

> <PUBCHEM_SHAPE_MULTIPOLES>
438.11
12.46
2.36
1.34
2.88
0.48
-0.38
-6.82
-2.25
-2.62
0.06
2.48
0.14
-1.52

> <PUBCHEM_SHAPE_SELFOVERLAP>
964.999

> <PUBCHEM_SHAPE_VOLUME>
236

> <PUBCHEM_COORDINATE_TYPE>
2
5
10

$$$$