44410932
  -OEChem-03242010093D

 43 44  0     0  0  0  0  0  0999 V2000
   -4.7940    1.9142    1.0387 O   0  0  0  0  0  0  0  0  0  0  0  0
   -4.0520   -2.4607   -0.7635 O   0  0  0  0  0  0  0  0  0  0  0  0
    5.2706   -2.0244    0.7548 O   0  0  0  0  0  0  0  0  0  0  0  0
    4.4762    2.4347   -0.7520 O   0  0  0  0  0  0  0  0  0  0  0  0
   -5.7947   -0.5095    0.1454 O   0  0  0  0  0  0  0  0  0  0  0  0
   -1.7014    0.1938    0.1244 C   0  0  0  0  0  0  0  0  0  0  0  0
    2.1406   -0.2658    0.0486 C   0  0  0  0  0  0  0  0  0  0  0  0
   -0.2492    0.4439    0.1173 C   0  0  0  0  0  0  0  0  0  0  0  0
   -2.2016   -1.0278   -0.3264 C   0  0  0  0  0  0  0  0  0  0  0  0
   -2.5760    1.1795    0.5819 C   0  0  0  0  0  0  0  0  0  0  0  0
    0.7077   -0.5133    0.0730 C   0  0  0  0  0  0  0  0  0  0  0  0
   -3.9509    0.9436    0.5882 C   0  0  0  0  0  0  0  0  0  0  0  0
   -3.5764   -1.2636   -0.3203 C   0  0  0  0  0  0  0  0  0  0  0  0
   -4.4511   -0.2779    0.1371 C   0  0  0  0  0  0  0  0  0  0  0  0
    2.6269    0.9812   -0.3442 C   0  0  0  0  0  0  0  0  0  0  0  0
    3.0290   -1.2760    0.4177 C   0  0  0  0  0  0  0  0  0  0  0  0
    4.4035   -1.0391    0.3941 C   0  0  0  0  0  0  0  0  0  0  0  0
    4.0013    1.2181   -0.3681 C   0  0  0  0  0  0  0  0  0  0  0  0
    4.8896    0.2079    0.0012 C   0  0  0  0  0  0  0  0  0  0  0  0
   -5.2823    2.8462    0.0757 C   0  0  0  0  0  0  0  0  0  0  0  0
   -3.0906   -3.4132   -1.2140 C   0  0  0  0  0  0  0  0  0  0  0  0
    6.6624   -1.7134    0.7073 C   0  0  0  0  0  0  0  0  0  0  0  0
    3.5125    3.4216   -1.1170 C   0  0  0  0  0  0  0  0  0  0  0  0
    0.0147    1.4963    0.1750 H   0  0  0  0  0  0  0  0  0  0  0  0
   -1.5034   -1.7634   -0.7039 H   0  0  0  0  0  0  0  0  0  0  0  0
   -2.1970    2.1350    0.9380 H   0  0  0  0  0  0  0  0  0  0  0  0
    0.4367   -1.5653    0.0740 H   0  0  0  0  0  0  0  0  0  0  0  0
    1.9220    1.7411   -0.6564 H   0  0  0  0  0  0  0  0  0  0  0  0
    2.6631   -2.2526    0.7275 H   0  0  0  0  0  0  0  0  0  0  0  0
    5.9458    0.4536   -0.0382 H   0  0  0  0  0  0  0  0  0  0  0  0
   -5.9538   -1.4047   -0.2010 H   0  0  0  0  0  0  0  0  0  0  0  0
   -5.9468    3.5491    0.5855 H   0  0  0  0  0  0  0  0  0  0  0  0
   -5.8502    2.3316   -0.7059 H   0  0  0  0  0  0  0  0  0  0  0  0
   -4.4540    3.4070   -0.3689 H   0  0  0  0  0  0  0  0  0  0  0  0
   -2.5519   -3.0568   -2.0986 H   0  0  0  0  0  0  0  0  0  0  0  0
   -2.4169   -3.7223   -0.4073 H   0  0  0  0  0  0  0  0  0  0  0  0
   -3.6445   -4.3067   -1.5214 H   0  0  0  0  0  0  0  0  0  0  0  0
    7.2046   -2.6099    1.0255 H   0  0  0  0  0  0  0  0  0  0  0  0
    6.9212   -0.9166    1.4129 H   0  0  0  0  0  0  0  0  0  0  0  0
    6.9899   -1.4876   -0.3132 H   0  0  0  0  0  0  0  0  0  0  0  0
    4.0660    4.3274   -1.3861 H   0  0  0  0  0  0  0  0  0  0  0  0
    2.8644    3.6849   -0.2741 H   0  0  0  0  0  0  0  0  0  0  0  0
    2.9445    3.1219   -2.0042 H   0  0  0  0  0  0  0  0  0  0  0  0
  1 12  1  0  0  0  0
  1 20  1  0  0  0  0
  2 13  1  0  0  0  0
  2 21  1  0  0  0  0
  3 17  1  0  0  0  0
  3 22  1  0  0  0  0
  4 18  1  0  0  0  0
  4 23  1  0  0  0  0
  5 14  1  0  0  0  0
  5 31  1  0  0  0  0
  6  8  1  0  0  0  0
  6  9  2  0  0  0  0
  6 10  1  0  0  0  0
  7 11  1  0  0  0  0
  7 15  2  0  0  0  0
  7 16  1  0  0  0  0
  8 11  2  0  0  0  0
  8 24  1  0  0  0  0
  9 13  1  0  0  0  0
  9 25  1  0  0  0  0
 10 12  2  0  0  0  0
 10 26  1  0  0  0  0
 11 27  1  0  0  0  0
 12 14  1  0  0  0  0
 13 14  2  0  0  0  0
 15 18  1  0  0  0  0
 15 28  1  0  0  0  0
 16 17  2  0  0  0  0
 16 29  1  0  0  0  0
 17 19  1  0  0  0  0
 18 19  2  0  0  0  0
 19 30  1  0  0  0  0
 20 32  1  0  0  0  0
 20 33  1  0  0  0  0
 20 34  1  0  0  0  0
 21 35  1  0  0  0  0
 21 36  1  0  0  0  0
 21 37  1  0  0  0  0
 22 38  1  0  0  0  0
 22 39  1  0  0  0  0
 22 40  1  0  0  0  0
 23 41  1  0  0  0  0
 23 42  1  0  0  0  0
 23 43  1  0  0  0  0
M  END
> <PUBCHEM_COMPOUND_CID>
44410932

> <PUBCHEM_CONFORMER_RMSD>
0.8

> <PUBCHEM_CONFORMER_DIVERSEORDER>
4
3
2
5
1
6

> <PUBCHEM_MMFF94_PARTIAL_CHARGES>
31
1 -0.36
10 -0.15
11 -0.18
12 0.08
13 0.08
14 0.08
15 -0.15
16 -0.15
17 0.08
18 0.08
19 -0.15
2 -0.36
20 0.28
21 0.28
22 0.28
23 0.28
24 0.15
25 0.15
26 0.15
27 0.15
28 0.15
29 0.15
3 -0.36
30 0.15
31 0.45
4 -0.36
5 -0.53
6 0.03
7 0.03
8 -0.18
9 -0.15

> <PUBCHEM_EFFECTIVE_ROTOR_COUNT>
6

> <PUBCHEM_PHARMACOPHORE_FEATURES>
7
1 1 acceptor
1 2 acceptor
1 3 acceptor
1 4 acceptor
1 5 donor
6 6 9 10 12 13 14 rings
6 7 15 16 17 18 19 rings

> <PUBCHEM_HEAVY_ATOM_COUNT>
23

> <PUBCHEM_ATOM_DEF_STEREO_COUNT>
0

> <PUBCHEM_ATOM_UDEF_STEREO_COUNT>
0

> <PUBCHEM_BOND_DEF_STEREO_COUNT>
1

> <PUBCHEM_BOND_UDEF_STEREO_COUNT>
0

> <PUBCHEM_ISOTOPIC_ATOM_COUNT>
0

> <PUBCHEM_COMPONENT_COUNT>
1

> <PUBCHEM_CACTVS_TAUTO_COUNT>
3

> <PUBCHEM_CONFORMER_ID>
02A5A83400000004

> <PUBCHEM_MMFF94_ENERGY>
105.9454

> <PUBCHEM_FEATURE_SELFOVERLAP>
35.523

> <PUBCHEM_SHAPE_FINGERPRINT>
10595046 47 18266178507662982204
10616163 171 18272089439340946847
10912923 1 18341054098394610256
11405975 8 18409730655643708256
12107183 9 18265896852255479752
12166972 35 18413107247874987088
12236239 1 18408605846452843426
12616971 3 18334295361864146818
13073987 5 18337392741854030896
13167823 11 18409447007297884346
13785724 45 17906738003874069674
14117953 113 18196653995073629868
14528608 73 18265058101325487356
14739800 52 17986665077509826600
14849402 71 18261395602920024132
14904525 67 15647059243812226228
15196674 1 18410013238590430584
15250474 111 18341040908698588430
15461852 350 16988547005457255180
17844677 252 18335991908242787417
17857418 61 18412257350665941474
18681886 176 18272368711737250154
20511986 3 18339347609051037672
21065198 48 18410576214434747708
21709351 56 18334570222739064286
23402539 116 18341326708511342569
23503953 91 18411976932208604560
23559900 14 17702400467493863358
245318 6 16738908611447378540
24771293 8 18337662110589506776
249057 3 18338517439170114872
268830 7 18113613503960854504
2838139 119 18115865197281943069
3004659 81 18342745100618941420
338550 245 18272651251555348390
34797466 226 17274554237817405108
4073 2 17968103079122304466
4214541 1 18412825768070168881
474 4 17896606274442771004
497634 4 18334853974343860823
504579 68 18339080496487014158
5104073 3 18411985779656644624
559249 180 18338794516390614379
573450 72 18341608217906041379
633830 44 17822012020894894344
67856867 119 18411697733960530952
7495541 125 17917426579402250730
77779 3 18410857680663190120

> <PUBCHEM_SHAPE_MULTIPOLES>
443.98
15.59
3.35
0.91
4.57
0.67
-0.09
-0.46
1.85
-0.7
-1.18
0.01
-0.02
-3.29

> <PUBCHEM_SHAPE_SELFOVERLAP>
941.069

> <PUBCHEM_SHAPE_VOLUME>
250.5

> <PUBCHEM_COORDINATE_TYPE>
2
5
10

$$$$