112
 OpenBabel03292021583D

193193  0  0  1  0  0  0  0  0999 V2000
    6.3565   -0.1935    5.5650 C   0  0  0  0  0  0  0  0  0  0  0  0
    7.2736    0.3896    4.5184 C   0  0  0  0  0  0  0  0  0  0  0  0
    7.0012    0.4499    3.1955 C   0  0  0  0  0  0  0  0  0  0  0  0
    7.6954    1.3294    2.1297 C   0  0  0  0  0  0  0  0  0  0  0  0
    8.4611    0.8200    0.8053 C   0  0  1  0  0  0  0  0  0  0  0  0
    7.5603    1.3846   -0.3639 C   0  0  0  0  0  0  0  0  0  0  0  0
   10.1791    0.9998    0.2488 C   0  0  1  0  0  0  0  0  0  0  0  0
   10.0594    2.2126   -0.5818 O   0  0  0  0  0  0  0  0  0  0  0  0
   12.0057    0.4903    0.9385 C   0  0  1  0  0  0  0  0  0  0  0  0
   13.8040    0.0327    0.0833 C   0  0  0  0  0  0  0  0  0  0  0  0
   14.6074    0.9246   -0.2790 O   0  0  0  0  0  0  0  0  0  0  0  0
   14.5548   -1.2672   -0.2722 N   0  0  0  0  0  0  0  0  0  0  0  0
   16.0922   -1.9266   -1.0472 C   0  0  1  0  0  0  0  0  0  0  0  0
   17.5249   -1.4013   -0.5120 C   0  0  0  0  0  0  0  0  0  0  0  0
   18.7865   -2.3457   -0.6402 C   0  0  0  0  0  0  0  0  0  0  0  0
   16.4709   -3.2481   -2.2268 C   0  0  0  0  0  0  0  0  0  0  0  0
   16.2737   -4.3960   -1.7786 O   0  0  0  0  0  0  0  0  0  0  0  0
   17.1647   -3.2523   -3.4845 N   0  0  0  0  0  0  0  0  0  0  0  0
   18.6042   -3.0014   -3.6521 C   0  0  0  0  0  0  0  0  0  0  0  0
   16.7671   -4.3138   -4.4791 C   0  0  0  0  0  0  0  0  0  0  0  0
   16.4067   -5.8113   -4.2303 C   0  0  0  0  0  0  0  0  0  0  0  0
   15.2204   -6.0701   -4.4811 O   0  0  0  0  0  0  0  0  0  0  0  0
   17.2988   -6.8290   -3.8725 N   0  0  0  0  0  0  0  0  0  0  0  0
   18.7412   -6.7314   -3.9897 C   0  0  0  0  0  0  0  0  0  0  0  0
   16.7415   -8.1335   -3.3216 C   0  0  2  0  0  0  0  0  0  0  0  0
   17.0374   -8.2535   -1.7841 C   0  0  0  0  0  0  0  0  0  0  0  0
   16.2614   -9.3458   -0.9752 C   0  0  0  0  0  0  0  0  0  0  0  0
   16.8792  -10.7326   -1.1442 C   0  0  0  0  0  0  0  0  0  0  0  0
   16.2457   -9.0748    0.5421 C   0  0  0  0  0  0  0  0  0  0  0  0
   17.1126   -9.4455   -4.0452 C   0  0  0  0  0  0  0  0  0  0  0  0
   18.2637   -9.8961   -4.0055 O   0  0  0  0  0  0  0  0  0  0  0  0
   16.1753  -10.1968   -4.7149 N   0  0  0  0  0  0  0  0  0  0  0  0
   14.8607   -9.8572   -5.3305 C   0  0  2  0  0  0  0  0  0  0  0  0
   14.9538   -8.6150   -6.2384 C   0  0  0  0  0  0  0  0  0  0  0  0
   13.6058   -8.1887   -6.8234 C   0  0  0  0  0  0  0  0  0  0  0  0
   15.9989   -8.7525   -7.3452 C   0  0  0  0  0  0  0  0  0  0  0  0
   13.6790   -9.7106   -4.2668 C   0  0  0  0  0  0  0  0  0  0  0  0
   13.5846   -8.6942   -3.5662 O   0  0  0  0  0  0  0  0  0  0  0  0
   12.8215  -10.7833   -4.1133 N   0  0  0  0  0  0  0  0  0  0  0  0
   12.3851  -11.6956   -5.1388 C   0  0  0  0  0  0  0  0  0  0  0  0
   11.9002  -10.6372   -2.9004 C   0  0  2  0  0  0  0  0  0  0  0  0
   11.7496  -11.9519   -2.0768 C   0  0  0  0  0  0  0  0  0  0  0  0
   13.0187  -12.3521   -1.3227 C   0  0  0  0  0  0  0  0  0  0  0  0
   12.6785  -13.4603   -0.3256 C   0  0  0  0  0  0  0  0  0  0  0  0
   14.1330  -12.8301   -2.2528 C   0  0  0  0  0  0  0  0  0  0  0  0
   10.4959  -10.1149   -3.2650 C   0  0  0  0  0  0  0  0  0  0  0  0
    9.8040  -10.6098   -4.1616 O   0  0  0  0  0  0  0  0  0  0  0  0
    9.9142   -9.1183   -2.5246 N   0  0  0  0  0  0  0  0  0  0  0  0
   10.6055   -8.0353   -1.8169 C   0  0  1  0  0  0  0  0  0  0  0  0
   10.0014   -6.7318   -2.3048 C   0  0  0  0  0  0  0  0  0  0  0  0
   10.8199   -8.4354   -0.3202 C   0  0  0  0  0  0  0  0  0  0  0  0
   11.4781   -9.4574   -0.0610 O   0  0  0  0  0  0  0  0  0  0  0  0
   10.3552   -7.8258    0.7911 N   0  0  0  0  0  0  0  0  0  0  0  0
    9.4844   -6.6905    1.0474 C   0  0  2  0  0  0  0  0  0  0  0  0
    8.0794   -6.8859    0.5080 C   0  0  0  0  0  0  0  0  0  0  0  0
   10.2321   -5.4153    0.6359 C   0  0  0  0  0  0  0  0  0  0  0  0
    9.8199   -4.6887   -0.2671 O   0  0  0  0  0  0  0  0  0  0  0  0
   11.4237   -5.1526    1.3122 N   0  0  0  0  0  0  0  0  0  0  0  0
   11.4825   -5.1139    2.7739 C   0  0  0  0  0  0  0  0  0  0  0  0
   12.4863   -4.4255    0.6298 C   0  0  1  0  0  0  0  0  0  0  0  0
   12.9679   -5.0092   -0.6292 C   0  0  0  0  0  0  0  0  0  0  0  0
   13.8304   -6.2081   -0.5341 C   0  0  0  0  0  0  0  0  0  0  0  0
   14.1344   -6.3763   -1.9958 C   0  0  0  0  0  0  0  0  0  0  0  0
   15.0303   -5.8695    0.3623 C   0  0  0  0  0  0  0  0  0  0  0  0
   12.4353   -2.9559    0.3316 C   0  0  0  0  0  0  0  0  0  0  0  0
   12.9247   -2.2637    1.2634 O   0  0  0  0  0  0  0  0  0  0  0  0
   11.9017   -2.3859   -0.8214 N   0  0  0  0  0  0  0  0  0  0  0  0
   11.9624   -2.7755   -2.2432 C   0  0  0  0  0  0  0  0  0  0  0  0
   11.1396   -1.1646   -0.6171 C   0  0  1  0  0  0  0  0  0  0  0  0
   10.2835   -1.4743    0.9632 C   0  0  0  0  0  0  0  0  0  0  0  0
    9.2541   -2.4610    1.5829 C   0  0  0  0  0  0  0  0  0  0  0  0
    9.1962   -2.1294    3.1116 C   0  0  0  0  0  0  0  0  0  0  0  0
    7.8386   -2.5911    1.0511 C   0  0  0  0  0  0  0  0  0  0  0  0
   11.8702    0.4167   -1.5120 C   0  0  0  0  0  0  0  0  0  0  0  0
   11.9316    0.3075   -2.7579 O   0  0  0  0  0  0  0  0  0  0  0  0
   12.3728    1.8498   -1.0547 N   0  0  0  0  0  0  0  0  0  0  0  0
   12.9053    2.7591    0.3304 C   0  0  1  0  0  0  0  0  0  0  0  0
   13.2893    4.2578    0.8475 C   0  0  0  0  0  0  0  0  0  0  0  0
   13.1965    4.2732    2.5009 C   0  0  0  0  0  0  0  0  0  0  0  0
   14.7307    4.7234    0.6893 C   0  0  0  0  0  0  0  0  0  0  0  0
   11.7531    2.6720    1.2465 C   0  0  0  0  0  0  0  0  0  0  0  0
   10.8117    3.4634    1.3162 O   0  0  0  0  0  0  0  0  0  0  0  0
   11.9366    1.5213    1.9810 N   0  0  0  0  0  0  0  0  0  0  0  0
   10.9588    1.4381    3.0527 C   0  0  0  0  0  0  0  0  0  0  0  0
    6.9269   -0.6456    6.3859 H   0  0  0  0  0  0  0  0  0  0  0  0
    5.6859   -0.9590    5.1708 H   0  0  0  0  0  0  0  0  0  0  0  0
    5.7454    0.6025    6.0035 H   0  0  0  0  0  0  0  0  0  0  0  0
    8.1910    0.8490    4.9090 H   0  0  0  0  0  0  0  0  0  0  0  0
    6.0556    0.0080    2.8901 H   0  0  0  0  0  0  0  0  0  0  0  0
    8.1460    2.2170    2.5644 H   0  0  0  0  0  0  0  0  0  0  0  0
    6.7583    1.7608    1.7272 H   0  0  0  0  0  0  0  0  0  0  0  0
    8.2528   -0.2369    0.7122 H   0  0  0  0  0  0  0  0  0  0  0  0
    7.5156    2.4792   -0.3174 H   0  0  0  0  0  0  0  0  0  0  0  0
    6.5312    1.0093   -0.2774 H   0  0  0  0  0  0  0  0  0  0  0  0
    7.9131    1.0840   -1.3545 H   0  0  0  0  0  0  0  0  0  0  0  0
    9.9532    0.3657   -0.5818 H   0  0  0  0  0  0  0  0  0  0  0  0
    9.8872    2.9748    0.0133 H   0  0  0  0  0  0  0  0  0  0  0  0
   11.9996   -0.3328    1.6445 H   0  0  0  0  0  0  0  0  0  0  0  0
   14.3120   -1.9329    0.4603 H   0  0  0  0  0  0  0  0  0  0  0  0
   16.0266   -2.7172   -0.2677 H   0  0  0  0  0  0  0  0  0  0  0  0
   17.7866   -0.4627   -1.0046 H   0  0  0  0  0  0  0  0  0  0  0  0
   17.4383   -1.2215    0.5618 H   0  0  0  0  0  0  0  0  0  0  0  0
   19.5351   -2.1306    0.1346 H   0  0  0  0  0  0  0  0  0  0  0  0
   19.3627   -2.1601   -1.5478 H   0  0  0  0  0  0  0  0  0  0  0  0
   18.5784   -3.4216   -0.5840 H   0  0  0  0  0  0  0  0  0  0  0  0
   19.1715   -3.7584   -3.1027 H   0  0  0  0  0  0  0  0  0  0  0  0
   18.8585   -1.9842   -3.3832 H   0  0  0  0  0  0  0  0  0  0  0  0
   18.9022   -3.1007   -4.7048 H   0  0  0  0  0  0  0  0  0  0  0  0
   17.4790   -4.3400   -5.3176 H   0  0  0  0  0  0  0  0  0  0  0  0
   15.8711   -3.8805   -4.9501 H   0  0  0  0  0  0  0  0  0  0  0  0
   19.0373   -5.8731   -4.5933 H   0  0  0  0  0  0  0  0  0  0  0  0
   19.1250   -7.6278   -4.4875 H   0  0  0  0  0  0  0  0  0  0  0  0
   19.1851   -6.6601   -2.9945 H   0  0  0  0  0  0  0  0  0  0  0  0
   15.6786   -8.0685   -3.4447 H   0  0  0  0  0  0  0  0  0  0  0  0
   18.1129   -8.3760   -1.6123 H   0  0  0  0  0  0  0  0  0  0  0  0
   16.8068   -7.2755   -1.3623 H   0  0  0  0  0  0  0  0  0  0  0  0
   15.2163   -9.3788   -1.3065 H   0  0  0  0  0  0  0  0  0  0  0  0
   17.9579  -10.7024   -0.9613 H   0  0  0  0  0  0  0  0  0  0  0  0
   16.7016  -11.1359   -2.1390 H   0  0  0  0  0  0  0  0  0  0  0  0
   16.4429  -11.4467   -0.4359 H   0  0  0  0  0  0  0  0  0  0  0  0
   17.2431   -8.8347    0.9232 H   0  0  0  0  0  0  0  0  0  0  0  0
   15.8691   -9.9405    1.1006 H   0  0  0  0  0  0  0  0  0  0  0  0
   15.5658   -8.2695    0.8063 H   0  0  0  0  0  0  0  0  0  0  0  0
   16.6084  -11.0351   -5.0827 H   0  0  0  0  0  0  0  0  0  0  0  0
   14.6689  -10.7055   -5.9863 H   0  0  0  0  0  0  0  0  0  0  0  0
   15.3025   -7.7985   -5.6368 H   0  0  0  0  0  0  0  0  0  0  0  0
   13.1850   -8.9670   -7.4648 H   0  0  0  0  0  0  0  0  0  0  0  0
   13.7190   -7.2737   -7.4144 H   0  0  0  0  0  0  0  0  0  0  0  0
   12.8794   -7.9607   -6.0356 H   0  0  0  0  0  0  0  0  0  0  0  0
   15.7401   -9.5547   -8.0435 H   0  0  0  0  0  0  0  0  0  0  0  0
   16.9900   -8.9588   -6.9325 H   0  0  0  0  0  0  0  0  0  0  0  0
   16.0795   -7.8154   -7.9089 H   0  0  0  0  0  0  0  0  0  0  0  0
   13.1917  -11.8980   -5.8551 H   0  0  0  0  0  0  0  0  0  0  0  0
   11.5678  -11.2460   -5.7059 H   0  0  0  0  0  0  0  0  0  0  0  0
   12.0796  -12.6536   -4.7245 H   0  0  0  0  0  0  0  0  0  0  0  0
   12.3736   -9.9420   -2.2332 H   0  0  0  0  0  0  0  0  0  0  0  0
   10.9494  -11.7541   -1.3337 H   0  0  0  0  0  0  0  0  0  0  0  0
   11.3724  -12.7530   -2.6962 H   0  0  0  0  0  0  0  0  0  0  0  0
   13.3969  -11.4958   -0.7492 H   0  0  0  0  0  0  0  0  0  0  0  0
   12.2430  -14.3277   -0.8319 H   0  0  0  0  0  0  0  0  0  0  0  0
   11.9596  -13.1022    0.4192 H   0  0  0  0  0  0  0  0  0  0  0  0
   13.5742  -13.7904    0.2102 H   0  0  0  0  0  0  0  0  0  0  0  0
   13.7647  -13.5689   -2.9723 H   0  0  0  0  0  0  0  0  0  0  0  0
   14.9516  -13.2846   -1.6875 H   0  0  0  0  0  0  0  0  0  0  0  0
   14.5690  -11.9982   -2.8086 H   0  0  0  0  0  0  0  0  0  0  0  0
    8.9825   -8.9028   -2.8629 H   0  0  0  0  0  0  0  0  0  0  0  0
   11.6277   -7.9942   -2.2023 H   0  0  0  0  0  0  0  0  0  0  0  0
    8.9360   -6.6376   -2.1053 H   0  0  0  0  0  0  0  0  0  0  0  0
   10.1192   -6.6513   -3.3937 H   0  0  0  0  0  0  0  0  0  0  0  0
   10.5149   -5.8715   -1.9205 H   0  0  0  0  0  0  0  0  0  0  0  0
   10.7052   -8.3022    1.6145 H   0  0  0  0  0  0  0  0  0  0  0  0
    9.3599   -6.6481    2.1336 H   0  0  0  0  0  0  0  0  0  0  0  0
    8.0578   -7.4203   -0.4415 H   0  0  0  0  0  0  0  0  0  0  0  0
    7.5475   -5.9368    0.3979 H   0  0  0  0  0  0  0  0  0  0  0  0
    7.5087   -7.5107    1.2042 H   0  0  0  0  0  0  0  0  0  0  0  0
   10.7534   -5.7688    3.2481 H   0  0  0  0  0  0  0  0  0  0  0  0
   11.2763   -4.0923    3.1020 H   0  0  0  0  0  0  0  0  0  0  0  0
   12.4826   -5.3864    3.1199 H   0  0  0  0  0  0  0  0  0  0  0  0
   13.3141   -4.4785    1.3437 H   0  0  0  0  0  0  0  0  0  0  0  0
   13.6228   -4.2528   -1.0792 H   0  0  0  0  0  0  0  0  0  0  0  0
   12.1354   -5.1882   -1.2946 H   0  0  0  0  0  0  0  0  0  0  0  0
   13.3124   -7.0785   -0.1719 H   0  0  0  0  0  0  0  0  0  0  0  0
   14.6203   -5.5007   -2.4108 H   0  0  0  0  0  0  0  0  0  0  0  0
   13.2342   -6.4770   -2.6177 H   0  0  0  0  0  0  0  0  0  0  0  0
   14.7324   -7.2445   -2.1104 H   0  0  0  0  0  0  0  0  0  0  0  0
   15.3038   -4.8120    0.3318 H   0  0  0  0  0  0  0  0  0  0  0  0
   15.9333   -6.4151    0.1193 H   0  0  0  0  0  0  0  0  0  0  0  0
   14.7777   -6.0896    1.4064 H   0  0  0  0  0  0  0  0  0  0  0  0
   12.5696   -3.6334   -2.4955 H   0  0  0  0  0  0  0  0  0  0  0  0
   12.4163   -1.9592   -2.8089 H   0  0  0  0  0  0  0  0  0  0  0  0
   10.9491   -2.9460   -2.6086 H   0  0  0  0  0  0  0  0  0  0  0  0
   10.2685   -1.3218   -1.2864 H   0  0  0  0  0  0  0  0  0  0  0  0
   10.0281   -0.5694    1.4719 H   0  0  0  0  0  0  0  0  0  0  0  0
   11.0639   -1.7942    1.6320 H   0  0  0  0  0  0  0  0  0  0  0  0
    9.6793   -3.4414    1.5884 H   0  0  0  0  0  0  0  0  0  0  0  0
    8.9735   -1.0785    3.2671 H   0  0  0  0  0  0  0  0  0  0  0  0
   10.1693   -2.2786    3.5942 H   0  0  0  0  0  0  0  0  0  0  0  0
    8.4592   -2.7295    3.6517 H   0  0  0  0  0  0  0  0  0  0  0  0
    7.1831   -1.7770    1.3712 H   0  0  0  0  0  0  0  0  0  0  0  0
    7.3821   -3.4952    1.4768 H   0  0  0  0  0  0  0  0  0  0  0  0
    7.8181   -2.6774   -0.0338 H   0  0  0  0  0  0  0  0  0  0  0  0
   12.6404    2.3444   -1.8962 H   0  0  0  0  0  0  0  0  0  0  0  0
   13.7279    2.2315    0.7890 H   0  0  0  0  0  0  0  0  0  0  0  0
   12.5937    5.0146    0.4687 H   0  0  0  0  0  0  0  0  0  0  0  0
   13.6802    3.3730    2.9167 H   0  0  0  0  0  0  0  0  0  0  0  0
   12.1702    4.2892    2.8919 H   0  0  0  0  0  0  0  0  0  0  0  0
   13.6701    5.1382    2.9696 H   0  0  0  0  0  0  0  0  0  0  0  0
   15.4308    4.0152    1.1455 H   0  0  0  0  0  0  0  0  0  0  0  0
   14.8611    5.6686    1.2400 H   0  0  0  0  0  0  0  0  0  0  0  0
   15.0015    4.9117   -0.3486 H   0  0  0  0  0  0  0  0  0  0  0  0
   11.1572    2.2093    3.7872 H   0  0  0  0  0  0  0  0  0  0  0  0
   10.9210    0.4468    3.4962 H   0  0  0  0  0  0  0  0  0  0  0  0
    9.9826    1.6813    2.6490 H   0  0  0  0  0  0  0  0  0  0  0  0
  1  2  1  0  0  0  0
  1 85  1  0  0  0  0
  1 86  1  0  0  0  0
  1 87  1  0  0  0  0
  2  3  2  0  0  0  0
  2 88  1  0  0  0  0
  3  4  1  0  0  0  0
  3 89  1  0  0  0  0
  4  5  1  0  0  0  0
  4 90  1  0  0  0  0
  4 91  1  0  0  0  0
  5  6  1  0  0  0  0
  5  7  1  0  0  0  0
  5 92  1  6  0  0  0
  6 93  1  0  0  0  0
  6 94  1  0  0  0  0
  6 95  1  0  0  0  0
  7  8  1  0  0  0  0
  7  9  1  0  0  0  0
  7 96  1  6  0  0  0
  8 97  1  0  0  0  0
  9 10  1  0  0  0  0
  9 83  1  0  0  0  0
  9 98  1  1  0  0  0
 10 11  2  0  0  0  0
 10 12  1  0  0  0  0
 12 13  1  0  0  0  0
 12 99  1  0  0  0  0
 13 14  1  0  0  0  0
 13 16  1  0  0  0  0
 13100  1  6  0  0  0
 14 15  1  0  0  0  0
 14101  1  0  0  0  0
 14102  1  0  0  0  0
 15103  1  0  0  0  0
 15104  1  0  0  0  0
 15105  1  0  0  0  0
 16 17  2  0  0  0  0
 16 18  1  0  0  0  0
 18 19  1  0  0  0  0
 18 20  1  0  0  0  0
 19106  1  0  0  0  0
 19107  1  0  0  0  0
 19108  1  0  0  0  0
 20 21  1  0  0  0  0
 20109  1  0  0  0  0
 20110  1  0  0  0  0
 21 22  2  0  0  0  0
 21 23  1  0  0  0  0
 23 24  1  0  0  0  0
 23 25  1  0  0  0  0
 24111  1  0  0  0  0
 24112  1  0  0  0  0
 24113  1  0  0  0  0
 25 30  1  0  0  0  0
 25 26  1  0  0  0  0
 25114  1  6  0  0  0
 26 27  1  0  0  0  0
 26115  1  0  0  0  0
 26116  1  0  0  0  0
 27 28  1  0  0  0  0
 27 29  1  0  0  0  0
 27117  1  0  0  0  0
 28118  1  0  0  0  0
 28119  1  0  0  0  0
 28120  1  0  0  0  0
 29121  1  0  0  0  0
 29122  1  0  0  0  0
 29123  1  0  0  0  0
 30 31  2  0  0  0  0
 30 32  1  0  0  0  0
 32 33  1  0  0  0  0
 32124  1  0  0  0  0
 33 37  1  0  0  0  0
 33 34  1  0  0  0  0
 33125  1  6  0  0  0
 34 35  1  0  0  0  0
 34 36  1  0  0  0  0
 34126  1  0  0  0  0
 35127  1  0  0  0  0
 35128  1  0  0  0  0
 35129  1  0  0  0  0
 36130  1  0  0  0  0
 36131  1  0  0  0  0
 36132  1  0  0  0  0
 37 38  2  0  0  0  0
 37 39  1  0  0  0  0
 39 40  1  0  0  0  0
 39 41  1  0  0  0  0
 40133  1  0  0  0  0
 40134  1  0  0  0  0
 40135  1  0  0  0  0
 41 46  1  0  0  0  0
 41 42  1  0  0  0  0
 41136  1  1  0  0  0
 42 43  1  0  0  0  0
 42137  1  0  0  0  0
 42138  1  0  0  0  0
 43 44  1  0  0  0  0
 43 45  1  0  0  0  0
 43139  1  0  0  0  0
 44140  1  0  0  0  0
 44141  1  0  0  0  0
 44142  1  0  0  0  0
 45143  1  0  0  0  0
 45144  1  0  0  0  0
 45145  1  0  0  0  0
 46 47  2  0  0  0  0
 46 48  1  0  0  0  0
 48 49  1  0  0  0  0
 48146  1  0  0  0  0
 49 50  1  0  0  0  0
 49 51  1  0  0  0  0
 49147  1  6  0  0  0
 50148  1  0  0  0  0
 50149  1  0  0  0  0
 50150  1  0  0  0  0
 51 52  2  0  0  0  0
 51 53  1  0  0  0  0
 53 54  1  0  0  0  0
 53151  1  0  0  0  0
 54 56  1  0  0  0  0
 54 55  1  0  0  0  0
 54152  1  1  0  0  0
 55153  1  0  0  0  0
 55154  1  0  0  0  0
 55155  1  0  0  0  0
 56 57  2  0  0  0  0
 56 58  1  0  0  0  0
 58 59  1  0  0  0  0
 58 60  1  0  0  0  0
 59156  1  0  0  0  0
 59157  1  0  0  0  0
 59158  1  0  0  0  0
 60 61  1  0  0  0  0
 60 65  1  0  0  0  0
 60159  1  1  0  0  0
 61 62  1  0  0  0  0
 61160  1  0  0  0  0
 61161  1  0  0  0  0
 62 63  1  0  0  0  0
 62 64  1  0  0  0  0
 62162  1  0  0  0  0
 63163  1  0  0  0  0
 63164  1  0  0  0  0
 63165  1  0  0  0  0
 64166  1  0  0  0  0
 64167  1  0  0  0  0
 64168  1  0  0  0  0
 65 66  2  0  0  0  0
 65 67  1  0  0  0  0
 67 68  1  0  0  0  0
 67 69  1  0  0  0  0
 68169  1  0  0  0  0
 68170  1  0  0  0  0
 68171  1  0  0  0  0
 69 70  1  0  0  0  0
 69 74  1  0  0  0  0
 69172  1  6  0  0  0
 70 71  1  0  0  0  0
 70173  1  0  0  0  0
 70174  1  0  0  0  0
 71 72  1  0  0  0  0
 71 73  1  0  0  0  0
 71175  1  0  0  0  0
 72176  1  0  0  0  0
 72177  1  0  0  0  0
 72178  1  0  0  0  0
 73179  1  0  0  0  0
 73180  1  0  0  0  0
 73181  1  0  0  0  0
 74 75  2  0  0  0  0
 74 76  1  0  0  0  0
 76 77  1  0  0  0  0
 76182  1  0  0  0  0
 77 78  1  0  0  0  0
 77 81  1  0  0  0  0
 77183  1  1  0  0  0
 78 79  1  0  0  0  0
 78 80  1  0  0  0  0
 78184  1  0  0  0  0
 79185  1  0  0  0  0
 79186  1  0  0  0  0
 79187  1  0  0  0  0
 80188  1  0  0  0  0
 80189  1  0  0  0  0
 80190  1  0  0  0  0
 81 82  2  0  0  0  0
 81 83  1  0  0  0  0
 83 84  1  0  0  0  0
 84191  1  0  0  0  0
 84192  1  0  0  0  0
 84193  1  0  0  0  0
M  END
>  <Energy>
1229.15

$$$$