25156966
  -OEChem-03242010103D

 72 75  0     0  0  0  0  0  0999 V2000
   -8.3791    1.0531   -0.1326 F   0  0  0  0  0  0  0  0  0  0  0  0
   -7.6114   -0.1003    1.5361 F   0  0  0  0  0  0  0  0  0  0  0  0
   -6.6960    1.8039    1.0216 F   0  0  0  0  0  0  0  0  0  0  0  0
    4.7335   -1.7183   -0.1965 O   0  0  0  0  0  0  0  0  0  0  0  0
   -0.7691    1.8175    1.2378 O   0  0  0  0  0  0  0  0  0  0  0  0
   -0.3542   -2.2557    0.7468 N   0  0  0  0  0  0  0  0  0  0  0  0
   -2.9115   -1.5711   -0.3260 N   0  0  0  0  0  0  0  0  0  0  0  0
   -1.5717   -2.8916    1.2644 C   0  0  0  0  0  0  0  0  0  0  0  0
   -0.5074   -1.9766   -0.6865 C   0  0  0  0  0  0  0  0  0  0  0  0
   -2.7897   -1.9838    1.0755 C   0  0  0  0  0  0  0  0  0  0  0  0
   -1.6890   -1.0376   -0.9397 C   0  0  0  0  0  0  0  0  0  0  0  0
    0.8100   -3.1091    0.9815 C   0  0  0  0  0  0  0  0  0  0  0  0
    2.0961   -2.2901    0.8871 C   0  0  0  0  0  0  0  0  0  0  0  0
   -4.1430   -1.1172   -0.8113 C   0  0  0  0  0  0  0  0  0  0  0  0
    3.3265   -3.1653    1.1205 C   0  0  0  0  0  0  0  0  0  0  0  0
    4.6127   -2.3514    1.0704 C   0  0  0  0  0  0  0  0  0  0  0  0
   -5.0358   -0.4728    0.0450 C   0  0  0  0  0  0  0  0  0  0  0  0
   -4.4785   -1.3110   -2.1513 C   0  0  0  0  0  0  0  0  0  0  0  0
   -6.2641   -0.0223   -0.4386 C   0  0  0  0  0  0  0  0  0  0  0  0
   -5.7067   -0.8603   -2.6351 C   0  0  0  0  0  0  0  0  0  0  0  0
   -6.5995   -0.2160   -1.7786 C   0  0  0  0  0  0  0  0  0  0  0  0
    5.8568   -0.9611   -0.4044 C   0  0  0  0  0  0  0  0  0  0  0  0
   -7.2188    0.6670    0.4764 C   0  0  0  0  0  0  0  0  0  0  0  0
    5.7560    0.3993   -0.6960 C   0  0  0  0  0  0  0  0  0  0  0  0
    4.4219    1.0633   -0.7868 C   0  0  0  0  0  0  0  0  0  0  0  0
    4.0668    1.9262    0.4395 C   0  0  0  0  0  0  0  0  0  0  0  0
    7.1112   -1.5656   -0.3225 C   0  0  0  0  0  0  0  0  0  0  0  0
    6.9096    1.1549   -0.9057 C   0  0  0  0  0  0  0  0  0  0  0  0
    2.7003    2.5600    0.3452 C   0  0  0  0  0  0  0  0  0  0  0  0
    8.2646   -0.8099   -0.5323 C   0  0  0  0  0  0  0  0  0  0  0  0
    8.1639    0.5503   -0.8239 C   0  0  0  0  0  0  0  0  0  0  0  0
    1.5833    1.8871    0.8407 C   0  0  0  0  0  0  0  0  0  0  0  0
    2.5544    3.8188   -0.2376 C   0  0  0  0  0  0  0  0  0  0  0  0
    0.3207    2.4734    0.7537 C   0  0  0  0  0  0  0  0  0  0  0  0
    1.2918    4.4051   -0.3247 C   0  0  0  0  0  0  0  0  0  0  0  0
    0.1749    3.7322    0.1710 C   0  0  0  0  0  0  0  0  0  0  0  0
   -2.0296    2.4751    1.1168 C   0  0  0  0  0  0  0  0  0  0  0  0
   -1.4655   -3.0956    2.3369 H   0  0  0  0  0  0  0  0  0  0  0  0
   -1.7478   -3.8536    0.7643 H   0  0  0  0  0  0  0  0  0  0  0  0
   -0.6567   -2.9080   -1.2495 H   0  0  0  0  0  0  0  0  0  0  0  0
    0.3813   -1.4886   -1.0987 H   0  0  0  0  0  0  0  0  0  0  0  0
   -3.6799   -2.5394    1.3959 H   0  0  0  0  0  0  0  0  0  0  0  0
   -2.6906   -1.0992    1.7179 H   0  0  0  0  0  0  0  0  0  0  0  0
   -1.4801   -0.0447   -0.5275 H   0  0  0  0  0  0  0  0  0  0  0  0
   -1.7992   -0.9169   -2.0236 H   0  0  0  0  0  0  0  0  0  0  0  0
    0.7659   -3.5282    1.9955 H   0  0  0  0  0  0  0  0  0  0  0  0
    0.8333   -3.9616    0.2903 H   0  0  0  0  0  0  0  0  0  0  0  0
    2.0754   -1.4883    1.6356 H   0  0  0  0  0  0  0  0  0  0  0  0
    2.1870   -1.8123   -0.0930 H   0  0  0  0  0  0  0  0  0  0  0  0
    3.3608   -3.9408    0.3454 H   0  0  0  0  0  0  0  0  0  0  0  0
    3.2538   -3.6685    2.0915 H   0  0  0  0  0  0  0  0  0  0  0  0
    4.6069   -1.5901    1.8604 H   0  0  0  0  0  0  0  0  0  0  0  0
    5.4542   -3.0297    1.2496 H   0  0  0  0  0  0  0  0  0  0  0  0
   -4.7928   -0.2962    1.0895 H   0  0  0  0  0  0  0  0  0  0  0  0
   -3.8032   -1.8239   -2.8312 H   0  0  0  0  0  0  0  0  0  0  0  0
   -5.9693   -1.0143   -3.6776 H   0  0  0  0  0  0  0  0  0  0  0  0
   -7.5517    0.1271   -2.1738 H   0  0  0  0  0  0  0  0  0  0  0  0
    4.4049    1.6907   -1.6891 H   0  0  0  0  0  0  0  0  0  0  0  0
    3.6283    0.3245   -0.9559 H   0  0  0  0  0  0  0  0  0  0  0  0
    4.8200    2.7127    0.5804 H   0  0  0  0  0  0  0  0  0  0  0  0
    4.1172    1.3132    1.3496 H   0  0  0  0  0  0  0  0  0  0  0  0
    7.2112   -2.6273   -0.1158 H   0  0  0  0  0  0  0  0  0  0  0  0
    6.8449    2.2155   -1.1346 H   0  0  0  0  0  0  0  0  0  0  0  0
    9.2413   -1.2815   -0.4732 H   0  0  0  0  0  0  0  0  0  0  0  0
    9.0621    1.1383   -0.9885 H   0  0  0  0  0  0  0  0  0  0  0  0
    1.6900    0.9064    1.2959 H   0  0  0  0  0  0  0  0  0  0  0  0
    3.4170    4.3517   -0.6290 H   0  0  0  0  0  0  0  0  0  0  0  0
    1.1792    5.3851   -0.7792 H   0  0  0  0  0  0  0  0  0  0  0  0
   -0.7756    4.2450    0.0706 H   0  0  0  0  0  0  0  0  0  0  0  0
   -2.7829    1.8110    1.5532 H   0  0  0  0  0  0  0  0  0  0  0  0
   -2.3062    2.6246    0.0676 H   0  0  0  0  0  0  0  0  0  0  0  0
   -2.0544    3.4077    1.6906 H   0  0  0  0  0  0  0  0  0  0  0  0
  1 23  1  0  0  0  0
  2 23  1  0  0  0  0
  3 23  1  0  0  0  0
  4 16  1  0  0  0  0
  4 22  1  0  0  0  0
  5 34  1  0  0  0  0
  5 37  1  0  0  0  0
  6  8  1  0  0  0  0
  6  9  1  0  0  0  0
  6 12  1  0  0  0  0
  7 10  1  0  0  0  0
  7 11  1  0  0  0  0
  7 14  1  0  0  0  0
  8 10  1  0  0  0  0
  8 38  1  0  0  0  0
  8 39  1  0  0  0  0
  9 11  1  0  0  0  0
  9 40  1  0  0  0  0
  9 41  1  0  0  0  0
 10 42  1  0  0  0  0
 10 43  1  0  0  0  0
 11 44  1  0  0  0  0
 11 45  1  0  0  0  0
 12 13  1  0  0  0  0
 12 46  1  0  0  0  0
 12 47  1  0  0  0  0
 13 15  1  0  0  0  0
 13 48  1  0  0  0  0
 13 49  1  0  0  0  0
 14 17  1  0  0  0  0
 14 18  2  0  0  0  0
 15 16  1  0  0  0  0
 15 50  1  0  0  0  0
 15 51  1  0  0  0  0
 16 52  1  0  0  0  0
 16 53  1  0  0  0  0
 17 19  2  0  0  0  0
 17 54  1  0  0  0  0
 18 20  1  0  0  0  0
 18 55  1  0  0  0  0
 19 21  1  0  0  0  0
 19 23  1  0  0  0  0
 20 21  2  0  0  0  0
 20 56  1  0  0  0  0
 21 57  1  0  0  0  0
 22 24  1  0  0  0  0
 22 27  2  0  0  0  0
 24 25  1  0  0  0  0
 24 28  2  0  0  0  0
 25 26  1  0  0  0  0
 25 58  1  0  0  0  0
 25 59  1  0  0  0  0
 26 29  1  0  0  0  0
 26 60  1  0  0  0  0
 26 61  1  0  0  0  0
 27 30  1  0  0  0  0
 27 62  1  0  0  0  0
 28 31  1  0  0  0  0
 28 63  1  0  0  0  0
 29 32  2  0  0  0  0
 29 33  1  0  0  0  0
 30 31  2  0  0  0  0
 30 64  1  0  0  0  0
 31 65  1  0  0  0  0
 32 34  1  0  0  0  0
 32 66  1  0  0  0  0
 33 35  2  0  0  0  0
 33 67  1  0  0  0  0
 34 36  2  0  0  0  0
 35 36  1  0  0  0  0
 35 68  1  0  0  0  0
 36 69  1  0  0  0  0
 37 70  1  0  0  0  0
 37 71  1  0  0  0  0
 37 72  1  0  0  0  0
M  END
> <PUBCHEM_COMPOUND_CID>
25156966

> <PUBCHEM_CONFORMER_RMSD>
1.8

> <PUBCHEM_CONFORMER_DIVERSEORDER>
1
11
113
93
114
63
40
14
23
28
19
82
119
109
36
7
52
117
4
101
102
64
12
48
29
43
91
115
112
92
94
97
106
81
72
34
61
67
105
17
56
96
90
70
5
10
80
41
118
79
55
2
16
104
37
99
9
111
98
88
44
13
68
35
31
50
25
83
103
30
21
49
27
45
77
24
38
54
85
65
66
59
33
76
100
39
86
84
47
32
18
3
71
78
110
89
42
69
46
95
51
75
73
108
15
57
87
116
8
20
22
74
53
60
58
6
26
62
107

> <PUBCHEM_MMFF94_PARTIAL_CHARGES>
47
1 -0.34
10 0.37
11 0.37
12 0.27
14 0.1
16 0.28
17 -0.15
18 -0.15
19 -0.14
2 -0.34
20 -0.15
21 -0.15
22 0.08
23 1.16
24 -0.14
25 0.14
26 0.14
27 -0.15
28 -0.15
29 -0.14
3 -0.34
30 -0.15
31 -0.15
32 -0.15
33 -0.15
34 0.08
35 -0.15
36 -0.15
37 0.28
4 -0.36
5 -0.36
54 0.15
55 0.15
56 0.15
57 0.15
6 -0.81
62 0.15
63 0.15
64 0.15
65 0.15
66 0.15
67 0.15
68 0.15
69 0.15
7 -0.84
8 0.27
9 0.27

> <PUBCHEM_EFFECTIVE_ROTOR_COUNT>
13.2

> <PUBCHEM_PHARMACOPHORE_FEATURES>
8
1 4 acceptor
1 5 acceptor
1 6 cation
1 7 cation
6 14 17 18 19 20 21 rings
6 22 24 27 28 30 31 rings
6 29 32 33 34 35 36 rings
6 6 7 8 9 10 11 rings

> <PUBCHEM_HEAVY_ATOM_COUNT>
37

> <PUBCHEM_ATOM_DEF_STEREO_COUNT>
0

> <PUBCHEM_ATOM_UDEF_STEREO_COUNT>
0

> <PUBCHEM_BOND_DEF_STEREO_COUNT>
0

> <PUBCHEM_BOND_UDEF_STEREO_COUNT>
0

> <PUBCHEM_ISOTOPIC_ATOM_COUNT>
0

> <PUBCHEM_COMPONENT_COUNT>
1

> <PUBCHEM_CACTVS_TAUTO_COUNT>
1

> <PUBCHEM_CONFORMER_ID>
017FDD6600000001

> <PUBCHEM_MMFF94_ENERGY>
109.4557

> <PUBCHEM_FEATURE_SELFOVERLAP>
40.6

> <PUBCHEM_SHAPE_FINGERPRINT>
10483366 6 18409730664434122512
10675989 125 18336823216844418616
11456790 92 17968087578538042394
11513181 2 18056486045906286630
12107698 1 18131348626886140508
13111901 25 18340206263271228985
13560911 43 17604419697146848410
13947947 74 18338519759375900196
14068700 675 17846497045455631600
14394314 77 18263649476200788621
14849402 71 18335423469990795499
14931854 50 18408606959778041590
15160629 131 18059853931019804054
15183329 4 18410004451160858365
15264996 151 18114742607923791352
15274700 21 17604722212884084643
15328829 1 17917717890075790955
15351339 4 18261662680659222744
15420108 30 17697896777662195345
15439362 3 18050848020925358672
15444296 9 18130794430155651429
15781502 409 17821730572321146755
16628084 112 18190739734965101482
16992787 43 18334579027094914740
21781055 127 16630538311263797475
23559900 14 18266455597773690648
24771293 8 18128515202738374786
24893992 56 18409167753668533307
3459 83 18343018934733249161
437795 51 18113621183821433067
46939830 39 17822295738409406964
58902169 19 18130498695565758118
6086070 43 18339356486727858979
9689198 14 16081084896267096948

> <PUBCHEM_SHAPE_MULTIPOLES>
717.92
22.76
4.78
1.57
5.98
3.1
0.55
-1.81
7.25
-3.53
-1.63
2.31
-0.55
-1.79

> <PUBCHEM_SHAPE_SELFOVERLAP>
1519.616

> <PUBCHEM_SHAPE_VOLUME>
403.6

> <PUBCHEM_COORDINATE_TYPE>
2
5
10

$$$$