25157260
  -OEChem-03242010103D

 56 58  0     0  0  0  0  0  0999 V2000
    0.5705    1.6425    0.7364 O   0  0  0  0  0  0  0  0  0  0  0  0
    1.4206   -2.7788   -2.0033 O   0  0  0  0  0  0  0  0  0  0  0  0
   -3.0225    1.0420    0.1807 N   0  0  0  0  0  0  0  0  0  0  0  0
   -5.6201   -0.1730   -0.1860 N   0  0  0  0  0  0  0  0  0  0  0  0
   -3.1570   -0.3735   -0.1845 C   0  0  0  0  0  0  0  0  0  0  0  0
   -4.1869    1.4831    0.9583 C   0  0  0  0  0  0  0  0  0  0  0  0
   -4.4553   -0.6155   -0.9621 C   0  0  0  0  0  0  0  0  0  0  0  0
   -5.4850    1.2423    0.1800 C   0  0  0  0  0  0  0  0  0  0  0  0
   -1.7850    1.2711    0.9238 C   0  0  0  0  0  0  0  0  0  0  0  0
   -0.6054    1.4044   -0.0260 C   0  0  0  0  0  0  0  0  0  0  0  0
   -6.8570   -0.4009   -0.9306 C   0  0  0  0  0  0  0  0  0  0  0  0
    1.7435    1.7704    0.0395 C   0  0  0  0  0  0  0  0  0  0  0  0
    2.9581    1.3928    0.6120 C   0  0  0  0  0  0  0  0  0  0  0  0
    3.0090    0.8387    1.9973 C   0  0  0  0  0  0  0  0  0  0  0  0
    3.2089   -0.6881    2.0544 C   0  0  0  0  0  0  0  0  0  0  0  0
    1.7137    2.2857   -1.2564 C   0  0  0  0  0  0  0  0  0  0  0  0
    4.1428    1.5307   -0.1113 C   0  0  0  0  0  0  0  0  0  0  0  0
    2.1285   -1.4569    1.3337 C   0  0  0  0  0  0  0  0  0  0  0  0
    2.8984    2.4236   -1.9796 C   0  0  0  0  0  0  0  0  0  0  0  0
    4.1130    2.0461   -1.4071 C   0  0  0  0  0  0  0  0  0  0  0  0
    2.2755   -1.7658   -0.0185 C   0  0  0  0  0  0  0  0  0  0  0  0
    0.9827   -1.8587    2.0203 C   0  0  0  0  0  0  0  0  0  0  0  0
    1.2769   -2.4766   -0.6842 C   0  0  0  0  0  0  0  0  0  0  0  0
   -0.0160   -2.5695    1.3547 C   0  0  0  0  0  0  0  0  0  0  0  0
    0.1311   -2.8784    0.0025 C   0  0  0  0  0  0  0  0  0  0  0  0
    2.6167   -2.3376   -2.6442 C   0  0  0  0  0  0  0  0  0  0  0  0
   -3.1420   -1.0128    0.7088 H   0  0  0  0  0  0  0  0  0  0  0  0
   -2.3250   -0.6894   -0.8231 H   0  0  0  0  0  0  0  0  0  0  0  0
   -4.1105    2.5571    1.1677 H   0  0  0  0  0  0  0  0  0  0  0  0
   -4.2312    0.9627    1.9247 H   0  0  0  0  0  0  0  0  0  0  0  0
   -4.4083   -0.0962   -1.9290 H   0  0  0  0  0  0  0  0  0  0  0  0
   -4.5364   -1.6891   -1.1718 H   0  0  0  0  0  0  0  0  0  0  0  0
   -6.3279    1.5430    0.8142 H   0  0  0  0  0  0  0  0  0  0  0  0
   -5.5038    1.8814   -0.7132 H   0  0  0  0  0  0  0  0  0  0  0  0
   -1.5984    0.4944    1.6772 H   0  0  0  0  0  0  0  0  0  0  0  0
   -1.8443    2.2108    1.4904 H   0  0  0  0  0  0  0  0  0  0  0  0
   -0.8281    2.2549   -0.6796 H   0  0  0  0  0  0  0  0  0  0  0  0
   -0.4702    0.4995   -0.6288 H   0  0  0  0  0  0  0  0  0  0  0  0
   -7.7262   -0.1113   -0.3296 H   0  0  0  0  0  0  0  0  0  0  0  0
   -6.9756   -1.4652   -1.1621 H   0  0  0  0  0  0  0  0  0  0  0  0
   -6.8851    0.1616   -1.8708 H   0  0  0  0  0  0  0  0  0  0  0  0
    3.8317    1.3212    2.5419 H   0  0  0  0  0  0  0  0  0  0  0  0
    2.1056    1.1064    2.5596 H   0  0  0  0  0  0  0  0  0  0  0  0
    3.2458   -1.0064    3.1042 H   0  0  0  0  0  0  0  0  0  0  0  0
    4.1865   -0.9568    1.6330 H   0  0  0  0  0  0  0  0  0  0  0  0
    0.8082    2.6181   -1.7499 H   0  0  0  0  0  0  0  0  0  0  0  0
    5.0958    1.2402    0.3231 H   0  0  0  0  0  0  0  0  0  0  0  0
    2.8769    2.8292   -2.9870 H   0  0  0  0  0  0  0  0  0  0  0  0
    5.0355    2.1541   -1.9700 H   0  0  0  0  0  0  0  0  0  0  0  0
    3.1896   -1.4403   -0.5030 H   0  0  0  0  0  0  0  0  0  0  0  0
    0.8550   -1.6205    3.0729 H   0  0  0  0  0  0  0  0  0  0  0  0
   -0.9097   -2.8796    1.8883 H   0  0  0  0  0  0  0  0  0  0  0  0
   -0.6513   -3.4304   -0.5110 H   0  0  0  0  0  0  0  0  0  0  0  0
    2.5614   -2.6609   -3.6888 H   0  0  0  0  0  0  0  0  0  0  0  0
    3.5041   -2.8107   -2.2102 H   0  0  0  0  0  0  0  0  0  0  0  0
    2.6897   -1.2447   -2.6519 H   0  0  0  0  0  0  0  0  0  0  0  0
  1 10  1  0  0  0  0
  1 12  1  0  0  0  0
  2 23  1  0  0  0  0
  2 26  1  0  0  0  0
  3  5  1  0  0  0  0
  3  6  1  0  0  0  0
  3  9  1  0  0  0  0
  4  7  1  0  0  0  0
  4  8  1  0  0  0  0
  4 11  1  0  0  0  0
  5  7  1  0  0  0  0
  5 27  1  0  0  0  0
  5 28  1  0  0  0  0
  6  8  1  0  0  0  0
  6 29  1  0  0  0  0
  6 30  1  0  0  0  0
  7 31  1  0  0  0  0
  7 32  1  0  0  0  0
  8 33  1  0  0  0  0
  8 34  1  0  0  0  0
  9 10  1  0  0  0  0
  9 35  1  0  0  0  0
  9 36  1  0  0  0  0
 10 37  1  0  0  0  0
 10 38  1  0  0  0  0
 11 39  1  0  0  0  0
 11 40  1  0  0  0  0
 11 41  1  0  0  0  0
 12 13  1  0  0  0  0
 12 16  2  0  0  0  0
 13 14  1  0  0  0  0
 13 17  2  0  0  0  0
 14 15  1  0  0  0  0
 14 42  1  0  0  0  0
 14 43  1  0  0  0  0
 15 18  1  0  0  0  0
 15 44  1  0  0  0  0
 15 45  1  0  0  0  0
 16 19  1  0  0  0  0
 16 46  1  0  0  0  0
 17 20  1  0  0  0  0
 17 47  1  0  0  0  0
 18 21  2  0  0  0  0
 18 22  1  0  0  0  0
 19 20  2  0  0  0  0
 19 48  1  0  0  0  0
 20 49  1  0  0  0  0
 21 23  1  0  0  0  0
 21 50  1  0  0  0  0
 22 24  2  0  0  0  0
 22 51  1  0  0  0  0
 23 25  2  0  0  0  0
 24 25  1  0  0  0  0
 24 52  1  0  0  0  0
 25 53  1  0  0  0  0
 26 54  1  0  0  0  0
 26 55  1  0  0  0  0
 26 56  1  0  0  0  0
M  END
> <PUBCHEM_COMPOUND_CID>
25157260

> <PUBCHEM_CONFORMER_RMSD>
1.4

> <PUBCHEM_CONFORMER_DIVERSEORDER>
3
51
73
96
49
105
88
34
56
61
60
9
8
86
81
13
69
48
5
27
45
20
24
67
41
54
94
71
87
74
28
75
37
62
64
72
70
35
44
23
33
55
65
98
83
31
15
40
92
12
53
52
90
68
32
100
63
76
42
79
95
38
25
21
99
22
77
66
82
102
30
58
1
19
14
101
46
6
97
84
18
39
11
104
59
10
29
2
43
16
4
93
91
26
80
78
36
89
50
103
85
47
7
57
17

> <PUBCHEM_MMFF94_PARTIAL_CHARGES>
34
1 -0.36
10 0.28
11 0.27
12 0.08
13 -0.14
14 0.14
15 0.14
16 -0.15
17 -0.15
18 -0.14
19 -0.15
2 -0.36
20 -0.15
21 -0.15
22 -0.15
23 0.08
24 -0.15
25 -0.15
26 0.28
3 -0.81
4 -0.81
46 0.15
47 0.15
48 0.15
49 0.15
5 0.27
50 0.15
51 0.15
52 0.15
53 0.15
6 0.27
7 0.27
8 0.27
9 0.27

> <PUBCHEM_EFFECTIVE_ROTOR_COUNT>
9.2

> <PUBCHEM_PHARMACOPHORE_FEATURES>
7
1 1 acceptor
1 2 acceptor
1 3 cation
1 4 cation
6 12 13 16 17 19 20 rings
6 18 21 22 23 24 25 rings
6 3 4 5 6 7 8 rings

> <PUBCHEM_HEAVY_ATOM_COUNT>
26

> <PUBCHEM_ATOM_DEF_STEREO_COUNT>
0

> <PUBCHEM_ATOM_UDEF_STEREO_COUNT>
0

> <PUBCHEM_BOND_DEF_STEREO_COUNT>
0

> <PUBCHEM_BOND_UDEF_STEREO_COUNT>
0

> <PUBCHEM_ISOTOPIC_ATOM_COUNT>
0

> <PUBCHEM_COMPONENT_COUNT>
1

> <PUBCHEM_CACTVS_TAUTO_COUNT>
1

> <PUBCHEM_CONFORMER_ID>
017FDE8C00000003

> <PUBCHEM_MMFF94_ENERGY>
76.559

> <PUBCHEM_FEATURE_SELFOVERLAP>
35.524

> <PUBCHEM_SHAPE_FINGERPRINT>
11112662 9 18335146444199576172
11118852 30 18201988937265898899
12156800 1 16374991050463227110
13150687 139 18264505038888396548
13836976 161 18260264183135843064
14863182 85 18201712938546648426
16752209 62 17978793733462921058
17138139 8 18053931029764084407
17492 54 17971504856672047878
17909252 39 17632026259859458935
20567600 347 18413111683774005942
20600515 1 17333924253965843680
20645477 70 18335417942062242249
20691752 17 17968671405736450385
20775438 99 18272928345465158759
21033648 29 14418676130520487909
21421861 104 18263935328049600985
23419403 2 15648151042306439082
23559900 14 17629481891885630887
238 59 18335717047468214168
3060560 45 18041005059404308564
345986 75 10231492795101316631
463206 1 18339350977012052017
474 4 18259981587341226603
513532 50 17132113550221000750
59755656 215 18412548712340629485
6287921 2 18130786690360553303
6669772 16 18041574611112347262
6823239 73 17985828129447317107
9999458 23 17313377929433429098

> <PUBCHEM_SHAPE_MULTIPOLES>
513.37
10.87
3.63
2.13
23.23
1.48
-0.48
-4.34
-2.2
-3.37
-1.1
-2.38
0.91
-1.02

> <PUBCHEM_SHAPE_SELFOVERLAP>
1071.491

> <PUBCHEM_SHAPE_VOLUME>
292.5

> <PUBCHEM_COORDINATE_TYPE>
2
5
10

$$$$