114
 OpenBabel03292021583D

139139  0  0  1  0  0  0  0  0999 V2000
    4.5557    1.2102   -0.4552 C   0  0  0  0  0  0  0  0  0  0  0  0
    4.0889    2.1219    0.6807 C   0  0  0  0  0  0  0  0  0  0  0  0
    2.4837    2.3878    0.9670 C   0  0  2  0  0  0  0  0  0  0  0  0
    2.0125    1.0759    1.5899 C   0  0  0  0  0  0  0  0  0  0  0  0
    2.0817    3.8829    1.7079 C   0  0  2  0  0  0  0  0  0  0  0  0
    1.0114    4.4080    2.8053 N   0  0  0  0  0  0  0  0  0  0  0  0
    0.6993    5.8228    3.0027 C   0  0  0  0  0  0  0  0  0  0  0  0
    0.5682    6.5618    2.0244 O   0  0  0  0  0  0  0  0  0  0  0  0
    0.5608    6.4825    4.5290 C   0  0  0  0  0  0  0  0  0  0  0  0
   -0.1159    7.9302    4.7795 C   0  0  0  0  0  0  0  0  0  0  0  0
    0.6651    9.1784    5.3701 C   0  0  0  0  0  0  0  0  0  0  0  0
    1.1200   10.2470    4.3493 C   0  0  0  0  0  0  0  0  0  0  0  0
    2.6048   10.5880    4.4636 C   0  0  0  0  0  0  0  0  0  0  0  0
    3.1606   11.0877    3.1308 C   0  0  0  0  0  0  0  0  0  0  0  0
    4.6761   11.1408    3.1668 C   0  0  0  0  0  0  0  0  0  0  0  0
    5.2153   11.5585    1.8954 N   0  0  0  0  0  0  0  0  0  0  0  0
    6.5334   11.5981    1.5463 C   0  0  0  0  0  0  0  0  0  0  0  0
    6.7970   11.8560    0.3699 O   0  0  0  0  0  0  0  0  0  0  0  0
    7.6190   11.3481    2.6338 C   0  0  2  0  0  0  0  0  0  0  0  0
    8.4134   12.6358    2.9758 C   0  0  0  0  0  0  0  0  0  0  0  0
    9.3812   12.3682    4.1382 C   0  0  0  0  0  0  0  0  0  0  0  0
    7.4857   13.7930    3.3615 C   0  0  0  0  0  0  0  0  0  0  0  0
    8.5057   10.2264    2.2176 N   0  0  0  0  0  0  0  0  0  0  0  0
    9.3616   10.4987    1.0661 C   0  0  0  0  0  0  0  0  0  0  0  0
    8.2595    8.9891    2.8029 C   0  0  0  0  0  0  0  0  0  0  0  0
    7.1899    8.8370    3.4197 O   0  0  0  0  0  0  0  0  0  0  0  0
    9.2803    7.7931    2.8927 C   0  0  1  0  0  0  0  0  0  0  0  0
   10.2120    7.5620    1.6748 C   0  0  1  0  0  0  0  0  0  0  0  0
   11.4726    8.4390    1.7328 C   0  0  0  0  0  0  0  0  0  0  0  0
   10.6526    6.0889    1.5056 C   0  0  0  0  0  0  0  0  0  0  0  0
   11.3887    5.8683    0.1806 C   0  0  0  0  0  0  0  0  0  0  0  0
   10.0833    7.8736    4.1071 O   0  0  0  0  0  0  0  0  0  0  0  0
    9.8914    7.1404    5.2356 C   0  0  0  0  0  0  0  0  0  0  0  0
   10.8674    6.6848    5.8392 O   0  0  0  0  0  0  0  0  0  0  0  0
    8.4648    7.0109    5.8210 C   0  0  2  0  0  0  0  0  0  0  0  0
    8.1064    8.1574    6.8459 C   0  0  0  0  0  0  0  0  0  0  0  0
    6.6278    8.1293    7.2663 C   0  0  0  0  0  0  0  0  0  0  0  0
    8.9303    8.1960    8.1319 C   0  0  0  0  0  0  0  0  0  0  0  0
    8.3196    9.4261    6.1998 O   0  0  0  0  0  0  0  0  0  0  0  0
    8.1532    5.6098    6.2950 N   0  0  0  0  0  0  0  0  0  0  0  0
    8.8143    5.0871    7.4755 C   0  0  0  0  0  0  0  0  0  0  0  0
    7.6456    4.6905    5.3755 C   0  0  0  0  0  0  0  0  0  0  0  0
    7.6912    4.9375    4.1507 O   0  0  0  0  0  0  0  0  0  0  0  0
    6.8598    3.4721    5.9352 C   0  0  2  0  0  0  0  0  0  0  0  0
    6.8990    2.2958    4.9369 C   0  0  0  0  0  0  0  0  0  0  0  0
    6.4266    0.9103    5.4321 C   0  0  0  0  0  0  0  0  0  0  0  0
    6.7566   -0.1345    4.3552 C   0  0  0  0  0  0  0  0  0  0  0  0
    7.0476    0.4851    6.7608 C   0  0  0  0  0  0  0  0  0  0  0  0
    5.5375    3.8782    6.4347 N   0  0  0  0  0  0  0  0  0  0  0  0
    4.4937    4.5338    5.8362 C   0  0  0  0  0  0  0  0  0  0  0  0
    3.5471    4.8216    6.5578 O   0  0  0  0  0  0  0  0  0  0  0  0
    4.4998    4.7749    4.3081 C   0  0  2  0  0  0  0  0  0  0  0  0
    4.1875    6.2821    3.9062 C   0  0  0  0  0  0  0  0  0  0  0  0
    4.4793    6.8123    2.4704 C   0  0  0  0  0  0  0  0  0  0  0  0
    4.9291    7.1982    4.8045 C   0  0  0  0  0  0  0  0  0  0  0  0
    3.4774    3.9234    3.7326 N   0  0  0  0  0  0  0  0  0  0  0  0
    2.8583    2.7794    4.4297 C   0  0  0  0  0  0  0  0  0  0  0  0
    3.3844    4.1279    2.3755 C   0  0  0  0  0  0  0  0  0  0  0  0
    4.3743    4.4662    1.7301 O   0  0  0  0  0  0  0  0  0  0  0  0
    5.6574    1.2676   -0.5219 H   0  0  0  0  0  0  0  0  0  0  0  0
    4.1787    1.5671   -1.4168 H   0  0  0  0  0  0  0  0  0  0  0  0
    4.3082    0.1591   -0.3110 H   0  0  0  0  0  0  0  0  0  0  0  0
    4.5976    3.0363    0.3833 H   0  0  0  0  0  0  0  0  0  0  0  0
    4.5659    1.7577    1.6061 H   0  0  0  0  0  0  0  0  0  0  0  0
    2.0335    2.4556   -0.0311 H   0  0  0  0  0  0  0  0  0  0  0  0
    2.5731    0.8154    2.4921 H   0  0  0  0  0  0  0  0  0  0  0  0
    2.2151    0.2492    0.8945 H   0  0  0  0  0  0  0  0  0  0  0  0
    0.9425    1.0771    1.7993 H   0  0  0  0  0  0  0  0  0  0  0  0
    1.9845    4.6064    0.8917 H   0  0  0  0  0  0  0  0  0  0  0  0
    0.9291    3.8708    3.6532 H   0  0  0  0  0  0  0  0  0  0  0  0
   -0.0183    5.7713    5.1304 H   0  0  0  0  0  0  0  0  0  0  0  0
    1.5378    6.5322    5.0104 H   0  0  0  0  0  0  0  0  0  0  0  0
   -0.8572    7.7483    5.5762 H   0  0  0  0  0  0  0  0  0  0  0  0
   -0.6949    8.2524    3.9108 H   0  0  0  0  0  0  0  0  0  0  0  0
    1.4704    8.8886    6.0553 H   0  0  0  0  0  0  0  0  0  0  0  0
   -0.0456    9.7293    6.0177 H   0  0  0  0  0  0  0  0  0  0  0  0
    0.5634   11.1827    4.5028 H   0  0  0  0  0  0  0  0  0  0  0  0
    0.8760    9.9102    3.3352 H   0  0  0  0  0  0  0  0  0  0  0  0
    3.1609    9.7072    4.7814 H   0  0  0  0  0  0  0  0  0  0  0  0
    2.7713   11.3568    5.2360 H   0  0  0  0  0  0  0  0  0  0  0  0
    2.7513   12.0751    2.8854 H   0  0  0  0  0  0  0  0  0  0  0  0
    2.8535   10.4075    2.3260 H   0  0  0  0  0  0  0  0  0  0  0  0
    5.0794   10.1521    3.3942 H   0  0  0  0  0  0  0  0  0  0  0  0
    5.0267   11.8391    3.9339 H   0  0  0  0  0  0  0  0  0  0  0  0
    4.5953   11.6295    1.0967 H   0  0  0  0  0  0  0  0  0  0  0  0
    7.1259   11.0601    3.5653 H   0  0  0  0  0  0  0  0  0  0  0  0
    8.9993   12.9596    2.1078 H   0  0  0  0  0  0  0  0  0  0  0  0
    8.8366   12.0754    5.0431 H   0  0  0  0  0  0  0  0  0  0  0  0
    9.9654   13.2635    4.3726 H   0  0  0  0  0  0  0  0  0  0  0  0
   10.0881   11.5673    3.8998 H   0  0  0  0  0  0  0  0  0  0  0  0
    6.8806   13.5416    4.2389 H   0  0  0  0  0  0  0  0  0  0  0  0
    6.8088   14.0542    2.5424 H   0  0  0  0  0  0  0  0  0  0  0  0
    8.0677   14.6895    3.5989 H   0  0  0  0  0  0  0  0  0  0  0  0
    8.9799   11.3221    0.4615 H   0  0  0  0  0  0  0  0  0  0  0  0
    9.4138    9.6495    0.3925 H   0  0  0  0  0  0  0  0  0  0  0  0
   10.3417   10.8206    1.4124 H   0  0  0  0  0  0  0  0  0  0  0  0
    8.6475    6.9041    2.9546 H   0  0  0  0  0  0  0  0  0  0  0  0
    9.6267    7.7766    0.7746 H   0  0  0  0  0  0  0  0  0  0  0  0
   12.3309    7.9028    2.1476 H   0  0  0  0  0  0  0  0  0  0  0  0
   11.3385    9.3217    2.3609 H   0  0  0  0  0  0  0  0  0  0  0  0
   11.7436    8.7741    0.7248 H   0  0  0  0  0  0  0  0  0  0  0  0
    9.7776    5.4296    1.5256 H   0  0  0  0  0  0  0  0  0  0  0  0
   11.3030    5.7891    2.3352 H   0  0  0  0  0  0  0  0  0  0  0  0
   10.7525    6.1380   -0.6698 H   0  0  0  0  0  0  0  0  0  0  0  0
   11.6756    4.8188    0.0696 H   0  0  0  0  0  0  0  0  0  0  0  0
   12.3035    6.4670    0.1163 H   0  0  0  0  0  0  0  0  0  0  0  0
    7.8193    7.1599    4.9612 H   0  0  0  0  0  0  0  0  0  0  0  0
    6.4266    8.8156    8.0986 H   0  0  0  0  0  0  0  0  0  0  0  0
    6.2930    7.1346    7.5736 H   0  0  0  0  0  0  0  0  0  0  0  0
    6.0050    8.5198    6.4640 H   0  0  0  0  0  0  0  0  0  0  0  0
    8.6952    9.1043    8.7030 H   0  0  0  0  0  0  0  0  0  0  0  0
   10.0011    8.2372    7.9245 H   0  0  0  0  0  0  0  0  0  0  0  0
    8.7112    7.3537    8.7918 H   0  0  0  0  0  0  0  0  0  0  0  0
    7.7995   10.1036    6.6693 H   0  0  0  0  0  0  0  0  0  0  0  0
    9.6780    5.6889    7.7543 H   0  0  0  0  0  0  0  0  0  0  0  0
    9.1905    4.0774    7.2890 H   0  0  0  0  0  0  0  0  0  0  0  0
    8.0901    5.0526    8.2990 H   0  0  0  0  0  0  0  0  0  0  0  0
    7.3773    3.1256    6.8384 H   0  0  0  0  0  0  0  0  0  0  0  0
    6.3428    2.5422    4.0270 H   0  0  0  0  0  0  0  0  0  0  0  0
    7.9474    2.1917    4.6176 H   0  0  0  0  0  0  0  0  0  0  0  0
    5.3394    0.9265    5.5608 H   0  0  0  0  0  0  0  0  0  0  0  0
    7.8350   -0.1720    4.1589 H   0  0  0  0  0  0  0  0  0  0  0  0
    6.2512    0.1013    3.4129 H   0  0  0  0  0  0  0  0  0  0  0  0
    6.4396   -1.1361    4.6634 H   0  0  0  0  0  0  0  0  0  0  0  0
    8.1346    0.6170    6.7560 H   0  0  0  0  0  0  0  0  0  0  0  0
    6.8373   -0.5692    6.9722 H   0  0  0  0  0  0  0  0  0  0  0  0
    6.6317    1.0664    7.5899 H   0  0  0  0  0  0  0  0  0  0  0  0
    5.3695    3.7218    7.4342 H   0  0  0  0  0  0  0  0  0  0  0  0
    5.4599    4.4787    3.8660 H   0  0  0  0  0  0  0  0  0  0  0  0
    3.1283    6.4436    4.0490 H   0  0  0  0  0  0  0  0  0  0  0  0
    5.4486    6.4650    2.0966 H   0  0  0  0  0  0  0  0  0  0  0  0
    4.5067    7.9089    2.4413 H   0  0  0  0  0  0  0  0  0  0  0  0
    3.6854    6.5664    1.7585 H   0  0  0  0  0  0  0  0  0  0  0  0
    5.9802    7.0716    4.5865 H   0  0  0  0  0  0  0  0  0  0  0  0
    4.7249    6.9793    5.8475 H   0  0  0  0  0  0  0  0  0  0  0  0
    4.6616    8.2350    4.6179 H   0  0  0  0  0  0  0  0  0  0  0  0
    2.3445    3.1317    5.3261 H   0  0  0  0  0  0  0  0  0  0  0  0
    3.6082    2.0255    4.6743 H   0  0  0  0  0  0  0  0  0  0  0  0
    2.1003    2.2883    3.8259 H   0  0  0  0  0  0  0  0  0  0  0  0
  1  2  1  0  0  0  0
  1 60  1  0  0  0  0
  1 61  1  0  0  0  0
  1 62  1  0  0  0  0
  2 63  1  0  0  0  0
  2 64  1  0  0  0  0
  3  4  1  0  0  0  0
  3  2  1  0  0  0  0
  3 65  1  1  0  0  0
  4 66  1  0  0  0  0
  4 67  1  0  0  0  0
  4 68  1  0  0  0  0
  5  6  1  0  0  0  0
  5 58  1  0  0  0  0
  5  3  1  0  0  0  0
  5 69  1  1  0  0  0
  6  7  1  0  0  0  0
  6 70  1  0  0  0  0
  7  8  2  0  0  0  0
  7  9  1  0  0  0  0
  9 10  1  0  0  0  0
  9 71  1  0  0  0  0
  9 72  1  0  0  0  0
 10 11  1  0  0  0  0
 10 73  1  0  0  0  0
 10 74  1  0  0  0  0
 11 12  1  0  0  0  0
 11 75  1  0  0  0  0
 11 76  1  0  0  0  0
 12 13  1  0  0  0  0
 12 77  1  0  0  0  0
 12 78  1  0  0  0  0
 13 14  1  0  0  0  0
 13 79  1  0  0  0  0
 13 80  1  0  0  0  0
 14 15  1  0  0  0  0
 14 81  1  0  0  0  0
 14 82  1  0  0  0  0
 15 16  1  0  0  0  0
 15 83  1  0  0  0  0
 15 84  1  0  0  0  0
 16 17  1  0  0  0  0
 16 85  1  0  0  0  0
 17 18  2  0  0  0  0
 17 19  1  0  0  0  0
 19 23  1  0  0  0  0
 19 20  1  0  0  0  0
 19 86  1  1  0  0  0
 20 21  1  0  0  0  0
 20 22  1  0  0  0  0
 20 87  1  0  0  0  0
 21 88  1  0  0  0  0
 21 89  1  0  0  0  0
 21 90  1  0  0  0  0
 22 91  1  0  0  0  0
 22 92  1  0  0  0  0
 22 93  1  0  0  0  0
 23 24  1  0  0  0  0
 23 25  1  0  0  0  0
 24 94  1  0  0  0  0
 24 95  1  0  0  0  0
 24 96  1  0  0  0  0
 25 26  2  0  0  0  0
 25 27  1  0  0  0  0
 27 28  1  0  0  0  0
 27 32  1  0  0  0  0
 27 97  1  1  0  0  0
 28 29  1  0  0  0  0
 28 30  1  0  0  0  0
 28 98  1  6  0  0  0
 29 99  1  0  0  0  0
 29100  1  0  0  0  0
 29101  1  0  0  0  0
 30 31  1  0  0  0  0
 30102  1  0  0  0  0
 30103  1  0  0  0  0
 31104  1  0  0  0  0
 31105  1  0  0  0  0
 31106  1  0  0  0  0
 32 33  1  0  0  0  0
 33 34  2  0  0  0  0
 33 35  1  0  0  0  0
 35 40  1  0  0  0  0
 35 36  1  0  0  0  0
 35107  1  6  0  0  0
 36 37  1  0  0  0  0
 36 38  1  0  0  0  0
 36 39  1  0  0  0  0
 37108  1  0  0  0  0
 37109  1  0  0  0  0
 37110  1  0  0  0  0
 38111  1  0  0  0  0
 38112  1  0  0  0  0
 38113  1  0  0  0  0
 39114  1  0  0  0  0
 40 41  1  0  0  0  0
 40 42  1  0  0  0  0
 41115  1  0  0  0  0
 41116  1  0  0  0  0
 41117  1  0  0  0  0
 42 43  2  0  0  0  0
 42 44  1  0  0  0  0
 44 49  1  0  0  0  0
 44 45  1  0  0  0  0
 44118  1  1  0  0  0
 45 46  1  0  0  0  0
 45119  1  0  0  0  0
 45120  1  0  0  0  0
 46 47  1  0  0  0  0
 46 48  1  0  0  0  0
 46121  1  0  0  0  0
 47122  1  0  0  0  0
 47123  1  0  0  0  0
 47124  1  0  0  0  0
 48125  1  0  0  0  0
 48126  1  0  0  0  0
 48127  1  0  0  0  0
 49 50  1  0  0  0  0
 49128  1  0  0  0  0
 50 51  2  0  0  0  0
 50 52  1  0  0  0  0
 52 56  1  0  0  0  0
 52 53  1  0  0  0  0
 52129  1  6  0  0  0
 53 54  1  0  0  0  0
 53 55  1  0  0  0  0
 53130  1  0  0  0  0
 54131  1  0  0  0  0
 54132  1  0  0  0  0
 54133  1  0  0  0  0
 55134  1  0  0  0  0
 55135  1  0  0  0  0
 55136  1  0  0  0  0
 56 57  1  0  0  0  0
 56 58  1  0  0  0  0
 57137  1  0  0  0  0
 57138  1  0  0  0  0
 57139  1  0  0  0  0
 58 59  2  0  0  0  0
M  END
>  <Energy>
331.283

$$$$