118708515
  -OEChem-03242010103D

 47 49  0     0  0  0  0  0  0999 V2000
    1.0064   -1.6637    1.8714 F   0  0  0  0  0  0  0  0  0  0  0  0
   -2.5770   -1.9034   -0.8649 O   0  0  0  0  0  0  0  0  0  0  0  0
   -3.1556    2.7432    0.1877 O   0  0  0  0  0  0  0  0  0  0  0  0
   -6.8556   -0.2474    0.4188 O   0  0  0  0  0  0  0  0  0  0  0  0
   -1.1050    1.4480   -1.5222 O   0  0  0  0  0  0  0  0  0  0  0  0
   -0.4969   -0.0560    0.1799 N   0  0  0  0  0  0  0  0  0  0  0  0
    7.2149   -1.2146    0.2780 N   0  0  0  0  0  0  0  0  0  0  0  0
   -2.8317    0.4254   -0.3456 C   0  0  0  0  0  0  0  0  0  0  0  0
    0.8975   -0.0499    0.1316 C   0  0  0  0  0  0  0  0  0  0  0  0
   -3.3624   -0.8574   -0.4817 C   0  0  0  0  0  0  0  0  0  0  0  0
   -3.6529    1.4819    0.0478 C   0  0  0  0  0  0  0  0  0  0  0  0
    3.6854   -0.0346    0.0315 C   0  0  0  0  0  0  0  0  0  0  0  0
   -1.3910    0.6673   -0.6207 C   0  0  0  0  0  0  0  0  0  0  0  0
    1.6307   -0.8667    0.9923 C   0  0  0  0  0  0  0  0  0  0  0  0
    1.5582    0.7745   -0.7792 C   0  0  0  0  0  0  0  0  0  0  0  0
   -4.7147   -1.0835   -0.2246 C   0  0  0  0  0  0  0  0  0  0  0  0
   -5.0051    1.2558    0.3051 C   0  0  0  0  0  0  0  0  0  0  0  0
   -5.5359   -0.0269    0.1688 C   0  0  0  0  0  0  0  0  0  0  0  0
    3.0247   -0.8591    0.9421 C   0  0  0  0  0  0  0  0  0  0  0  0
    2.9521    0.7823   -0.8291 C   0  0  0  0  0  0  0  0  0  0  0  0
    5.1310   -0.0258   -0.0197 C   0  0  0  0  0  0  0  0  0  0  0  0
    5.8282    1.1167   -0.3966 C   0  0  0  0  0  0  0  0  0  0  0  0
    5.8647   -1.1555    0.3051 C   0  0  0  0  0  0  0  0  0  0  0  0
    7.2179    1.0949   -0.4366 C   0  0  0  0  0  0  0  0  0  0  0  0
   -3.2065   -3.1780   -0.9774 C   0  0  0  0  0  0  0  0  0  0  0  0
   -2.6476    3.0999    1.4717 C   0  0  0  0  0  0  0  0  0  0  0  0
    7.8582   -0.0848   -0.0931 C   0  0  0  0  0  0  0  0  0  0  0  0
   -7.3320   -1.5830    0.2597 C   0  0  0  0  0  0  0  0  0  0  0  0
   -0.9018   -0.6731    0.8812 H   0  0  0  0  0  0  0  0  0  0  0  0
    1.0626    1.4336   -1.4777 H   0  0  0  0  0  0  0  0  0  0  0  0
   -5.1312   -2.0736   -0.3282 H   0  0  0  0  0  0  0  0  0  0  0  0
   -5.6468    2.0784    0.6110 H   0  0  0  0  0  0  0  0  0  0  0  0
    3.5554   -1.4919    1.6480 H   0  0  0  0  0  0  0  0  0  0  0  0
    3.4254    1.4197   -1.5713 H   0  0  0  0  0  0  0  0  0  0  0  0
    5.3307    2.0513   -0.6401 H   0  0  0  0  0  0  0  0  0  0  0  0
    5.4046   -2.0986    0.5829 H   0  0  0  0  0  0  0  0  0  0  0  0
    7.7828    1.9753   -0.7211 H   0  0  0  0  0  0  0  0  0  0  0  0
   -2.4339   -3.8882   -1.2909 H   0  0  0  0  0  0  0  0  0  0  0  0
   -3.9732   -3.1854   -1.7599 H   0  0  0  0  0  0  0  0  0  0  0  0
   -3.5826   -3.5324   -0.0114 H   0  0  0  0  0  0  0  0  0  0  0  0
   -2.2640    4.1223    1.4158 H   0  0  0  0  0  0  0  0  0  0  0  0
   -1.8290    2.4355    1.7654 H   0  0  0  0  0  0  0  0  0  0  0  0
   -3.4449    3.0661    2.2209 H   0  0  0  0  0  0  0  0  0  0  0  0
    8.9409   -0.1533   -0.1065 H   0  0  0  0  0  0  0  0  0  0  0  0
   -8.4004   -1.5728    0.4999 H   0  0  0  0  0  0  0  0  0  0  0  0
   -7.2454   -1.9226   -0.7781 H   0  0  0  0  0  0  0  0  0  0  0  0
   -6.8561   -2.2695    0.9684 H   0  0  0  0  0  0  0  0  0  0  0  0
  1 14  1  0  0  0  0
  2 10  1  0  0  0  0
  2 25  1  0  0  0  0
  3 11  1  0  0  0  0
  3 26  1  0  0  0  0
  4 18  1  0  0  0  0
  4 28  1  0  0  0  0
  5 13  2  0  0  0  0
  6  9  1  0  0  0  0
  6 13  1  0  0  0  0
  6 29  1  0  0  0  0
  7 23  1  0  0  0  0
  7 27  2  0  0  0  0
  8 10  2  0  0  0  0
  8 11  1  0  0  0  0
  8 13  1  0  0  0  0
  9 14  2  0  0  0  0
  9 15  1  0  0  0  0
 10 16  1  0  0  0  0
 11 17  2  0  0  0  0
 12 19  2  0  0  0  0
 12 20  1  0  0  0  0
 12 21  1  0  0  0  0
 14 19  1  0  0  0  0
 15 20  2  0  0  0  0
 15 30  1  0  0  0  0
 16 18  2  0  0  0  0
 16 31  1  0  0  0  0
 17 18  1  0  0  0  0
 17 32  1  0  0  0  0
 19 33  1  0  0  0  0
 20 34  1  0  0  0  0
 21 22  1  0  0  0  0
 21 23  2  0  0  0  0
 22 24  2  0  0  0  0
 22 35  1  0  0  0  0
 23 36  1  0  0  0  0
 24 27  1  0  0  0  0
 24 37  1  0  0  0  0
 25 38  1  0  0  0  0
 25 39  1  0  0  0  0
 25 40  1  0  0  0  0
 26 41  1  0  0  0  0
 26 42  1  0  0  0  0
 26 43  1  0  0  0  0
 27 44  1  0  0  0  0
 28 45  1  0  0  0  0
 28 46  1  0  0  0  0
 28 47  1  0  0  0  0
M  END
> <PUBCHEM_COMPOUND_CID>
118708515

> <PUBCHEM_CONFORMER_RMSD>
0.8

> <PUBCHEM_CONFORMER_DIVERSEORDER>
3
7
18
13
22
12
5
17
16
1
24
21
6
23
20
8
2
10
9
14
25
4
11
19
15

> <PUBCHEM_MMFF94_PARTIAL_CHARGES>
36
1 -0.19
10 0.08
11 0.08
13 0.54
14 0.19
15 -0.15
16 -0.15
17 -0.15
18 0.08
19 -0.15
2 -0.36
20 -0.15
22 -0.15
23 0.16
24 -0.15
25 0.28
26 0.28
27 0.16
28 0.28
29 0.37
3 -0.36
30 0.15
31 0.15
32 0.15
33 0.15
34 0.15
35 0.15
36 0.15
37 0.15
4 -0.36
44 0.15
5 -0.57
6 -0.55
7 -0.62
8 0.09
9 0.12

> <PUBCHEM_EFFECTIVE_ROTOR_COUNT>
7

> <PUBCHEM_PHARMACOPHORE_FEATURES>
9
1 2 acceptor
1 3 acceptor
1 4 acceptor
1 5 acceptor
1 6 donor
1 7 acceptor
6 7 21 22 23 24 27 rings
6 8 10 11 16 17 18 rings
6 9 12 14 15 19 20 rings

> <PUBCHEM_HEAVY_ATOM_COUNT>
28

> <PUBCHEM_ATOM_DEF_STEREO_COUNT>
0

> <PUBCHEM_ATOM_UDEF_STEREO_COUNT>
0

> <PUBCHEM_BOND_DEF_STEREO_COUNT>
0

> <PUBCHEM_BOND_UDEF_STEREO_COUNT>
0

> <PUBCHEM_ISOTOPIC_ATOM_COUNT>
0

> <PUBCHEM_COMPONENT_COUNT>
1

> <PUBCHEM_CACTVS_TAUTO_COUNT>
5

> <PUBCHEM_CONFORMER_ID>
0713592300000003

> <PUBCHEM_MMFF94_ENERGY>
122.1492

> <PUBCHEM_FEATURE_SELFOVERLAP>
45.675

> <PUBCHEM_SHAPE_FINGERPRINT>
10299344 5 18409730668639607086
10411042 1 18054504983941170103
10595046 47 18409729530662963490
11315181 36 18335140891018027397
11524674 6 16773795922043392127
11719270 70 12396291565887029544
12107698 1 18202282519777133288
12166972 35 18333734632826438908
12236239 1 18334013873939438492
12596602 18 18408886209086304616
13631057 29 18408602578631538761
13782708 43 16773224227431184238
14251764 18 18411419531110421046
14394314 77 18187649051194190181
14849402 71 18336552728557932212
14856354 85 18202003256528660654
14933364 13 18343584045192246936
15183329 4 18413108351623435846
15419008 47 17203605978303343840
17844677 252 18272373083708359632
18608769 82 18342177804069731695
18681886 176 18335978748462966760
19377110 9 18040704853995638024
21033648 29 16056022555103742369
21236236 1 18408041805910031592
21267235 1 18260269659324315703
21315763 28 18409730643291686000
21792961 116 16917074313667769532
22224240 67 17458062681680543928
2297311 6 18131072632377363449
23035841 295 18413106165057742798
23516275 137 18197518263296897762
23522609 53 18043558061322789700
23536379 177 18342738495122783378
23559900 14 18271234045069297265
23569943 247 17461432521996764034
24771293 8 18188765189262738116
335352 9 18413100672902191629
34797466 226 17704079516866686660
397830 11 17130690864386062602
4073 2 18114748243743998450
4325135 7 18408041823327297358
497634 4 18408882914978134212
5265222 85 17845370110846565118
5758199 1 18040718074100205480
59755656 520 17530963609289658714
9896288 288 18269562654736102577
9996256 80 18334857195579875108
999808 66 18113628910583643323

> <PUBCHEM_SHAPE_MULTIPOLES>
535.51
20.42
2.42
1.07
17.5
0.28
0.15
-3.23
0.57
-3.52
0.2
-0.01
0.02
-1.55

> <PUBCHEM_SHAPE_SELFOVERLAP>
1166.344

> <PUBCHEM_SHAPE_VOLUME>
294.2

> <PUBCHEM_COORDINATE_TYPE>
2
5
10

$$$$