120
 OpenBabel03292021593D

200200  0  0  1  0  0  0  0  0999 V2000
    3.0682   -0.2295    3.0347 C   0  0  0  0  0  0  0  0  0  0  0  0
    3.0132   -1.1217    4.2895 C   0  0  0  0  0  0  0  0  0  0  0  0
    4.1814   -1.7514    5.1141 C   0  0  0  0  0  0  0  0  0  0  0  0
    5.5339   -1.8671    5.0062 C   0  0  0  0  0  0  0  0  0  0  0  0
    6.6028   -2.5872    6.1096 C   0  0  0  0  0  0  0  0  0  0  0  0
    8.0130   -3.6497    6.5306 C   0  0  1  0  0  0  0  0  0  0  0  0
    9.0160   -3.2692    5.4001 C   0  0  0  0  0  0  0  0  0  0  0  0
    8.8429   -3.7636    8.1629 C   0  0  1  0  0  0  0  0  0  0  0  0
    8.0789   -3.0465    9.1265 O   0  0  0  0  0  0  0  0  0  0  0  0
   10.0352   -5.0139    8.9076 C   0  0  1  0  0  0  0  0  0  0  0  0
   10.1868   -6.3118   10.2625 C   0  0  0  0  0  0  0  0  0  0  0  0
    9.1967   -6.9591   10.6230 O   0  0  0  0  0  0  0  0  0  0  0  0
   11.5512   -6.7462   10.8820 N   0  0  0  0  0  0  0  0  0  0  0  0
   12.0046   -8.0751   11.9599 C   0  0  1  0  0  0  0  0  0  0  0  0
   12.4153   -7.9217   13.5125 C   0  0  1  0  0  0  0  0  0  0  0  0
   11.5840   -7.3403   14.6412 C   0  0  0  0  0  0  0  0  0  0  0  0
   12.5916   -9.2874   14.0273 O   0  0  0  0  0  0  0  0  0  0  0  0
   13.0927   -9.3248   11.4320 C   0  0  0  0  0  0  0  0  0  0  0  0
   12.7284   -9.9375   10.4264 O   0  0  0  0  0  0  0  0  0  0  0  0
   14.3099   -9.8230   12.0164 N   0  0  0  0  0  0  0  0  0  0  0  0
   15.1926   -9.1343   12.9619 C   0  0  0  0  0  0  0  0  0  0  0  0
   14.9929  -11.0105   11.3746 C   0  0  0  0  0  0  0  0  0  0  0  0
   14.5893  -12.5293   11.2651 C   0  0  0  0  0  0  0  0  0  0  0  0
   14.5358  -13.0095   10.1223 O   0  0  0  0  0  0  0  0  0  0  0  0
   14.5249  -13.3857   12.3718 N   0  0  0  0  0  0  0  0  0  0  0  0
   14.6280  -12.9273   13.7438 C   0  0  0  0  0  0  0  0  0  0  0  0
   14.2635  -14.8566   12.1466 C   0  0  2  0  0  0  0  0  0  0  0  0
   12.7956  -15.2004   12.5133 C   0  0  0  0  0  0  0  0  0  0  0  0
   11.7765  -14.5589   11.5481 C   0  0  0  0  0  0  0  0  0  0  0  0
   11.8816  -15.1273   10.1368 C   0  0  0  0  0  0  0  0  0  0  0  0
   10.3535  -14.7607   12.0650 C   0  0  0  0  0  0  0  0  0  0  0  0
   15.2402  -15.8673   12.8398 C   0  0  0  0  0  0  0  0  0  0  0  0
   15.4040  -15.8663   14.0659 O   0  0  0  0  0  0  0  0  0  0  0  0
   15.9525  -16.8161   12.1365 N   0  0  0  0  0  0  0  0  0  0  0  0
   16.1200  -17.0832   10.6737 C   0  0  2  0  0  0  0  0  0  0  0  0
   16.6874  -15.8397    9.9456 C   0  0  0  0  0  0  0  0  0  0  0  0
   16.8668  -15.9994    8.4374 C   0  0  0  0  0  0  0  0  0  0  0  0
   18.0097  -15.3738   10.5735 C   0  0  0  0  0  0  0  0  0  0  0  0
   14.7658  -17.6572   10.1428 C   0  0  0  0  0  0  0  0  0  0  0  0
   13.7341  -17.3265   10.7641 O   0  0  0  0  0  0  0  0  0  0  0  0
   14.6593  -18.4928    9.0356 N   0  0  0  0  0  0  0  0  0  0  0  0
   15.7291  -19.2933    8.4995 C   0  0  0  0  0  0  0  0  0  0  0  0
   13.2344  -18.8015    8.5939 C   0  0  2  0  0  0  0  0  0  0  0  0
   12.6987  -20.1415    9.1482 C   0  0  0  0  0  0  0  0  0  0  0  0
   12.4560  -20.2387   10.6686 C   0  0  0  0  0  0  0  0  0  0  0  0
   11.4065  -19.2616   11.2081 C   0  0  0  0  0  0  0  0  0  0  0  0
   11.9946  -21.6558   11.0257 C   0  0  0  0  0  0  0  0  0  0  0  0
   13.0630  -18.8107    7.0620 C   0  0  0  0  0  0  0  0  0  0  0  0
   13.6639  -19.6058    6.3251 O   0  0  0  0  0  0  0  0  0  0  0  0
   12.2121  -17.9246    6.4481 N   0  0  0  0  0  0  0  0  0  0  0  0
   11.4152  -16.8360    7.0330 C   0  0  1  0  0  0  0  0  0  0  0  0
   11.3946  -15.6707    6.0712 C   0  0  0  0  0  0  0  0  0  0  0  0
   10.0910  -17.4075    7.6294 C   0  0  0  0  0  0  0  0  0  0  0  0
   10.1241  -18.4676    8.2725 O   0  0  0  0  0  0  0  0  0  0  0  0
    8.8744  -16.8006    7.6471 N   0  0  0  0  0  0  0  0  0  0  0  0
    8.0959  -16.1935    6.5574 C   0  0  2  0  0  0  0  0  0  0  0  0
    8.2796  -16.8986    5.2158 C   0  0  0  0  0  0  0  0  0  0  0  0
    8.2179  -14.6843    6.5130 C   0  0  0  0  0  0  0  0  0  0  0  0
    8.8519  -14.1535    5.5490 O   0  0  0  0  0  0  0  0  0  0  0  0
    7.6868  -13.9409    7.5724 N   0  0  0  0  0  0  0  0  0  0  0  0
    6.2644  -14.0471    7.8291 C   0  0  0  0  0  0  0  0  0  0  0  0
    8.2472  -12.6075    7.9430 C   0  0  1  0  0  0  0  0  0  0  0  0
    9.6804  -12.7022    8.4208 C   0  0  0  0  0  0  0  0  0  0  0  0
   10.3565  -11.3667    8.7279 C   0  0  0  0  0  0  0  0  0  0  0  0
    9.9667  -10.8846   10.1258 C   0  0  0  0  0  0  0  0  0  0  0  0
   11.8600  -11.5428    8.5066 C   0  0  0  0  0  0  0  0  0  0  0  0
    7.8063  -11.4933    6.9598 C   0  0  0  0  0  0  0  0  0  0  0  0
    6.8063  -10.8280    7.2652 O   0  0  0  0  0  0  0  0  0  0  0  0
    8.3878  -11.3816    5.7113 N   0  0  0  0  0  0  0  0  0  0  0  0
    9.8243  -11.5823    5.5027 C   0  0  0  0  0  0  0  0  0  0  0  0
    7.7562  -10.5643    4.6627 C   0  0  1  0  0  0  0  0  0  0  0  0
    6.2353  -10.6040    4.4698 C   0  0  0  0  0  0  0  0  0  0  0  0
    5.7695   -9.6862    3.3139 C   0  0  0  0  0  0  0  0  0  0  0  0
    6.3342  -10.1117    1.9595 C   0  0  0  0  0  0  0  0  0  0  0  0
    4.2456   -9.6170    3.2796 C   0  0  0  0  0  0  0  0  0  0  0  0
    8.4977   -9.2217    4.5545 C   0  0  0  0  0  0  0  0  0  0  0  0
    9.3593   -9.1696    3.6647 O   0  0  0  0  0  0  0  0  0  0  0  0
    8.3746   -8.2224    5.5076 N   0  0  0  0  0  0  0  0  0  0  0  0
    7.0595   -7.8549    6.0298 C   0  0  0  0  0  0  0  0  0  0  0  0
    9.6221   -7.6954    6.1925 C   0  0  1  0  0  0  0  0  0  0  0  0
   10.8714   -7.4911    5.3012 C   0  0  0  0  0  0  0  0  0  0  0  0
   11.8150   -8.6859    5.2236 C   0  0  0  0  0  0  0  0  0  0  0  0
   10.6259   -6.7120    4.0081 C   0  0  0  0  0  0  0  0  0  0  0  0
    9.4261   -6.5199    7.2218 C   0  0  0  0  0  0  0  0  0  0  0  0
    8.3216   -6.3900    7.7748 O   0  0  0  0  0  0  0  0  0  0  0  0
   10.4830   -5.7353    7.7247 N   0  0  0  0  0  0  0  0  0  0  0  0
   11.5029   -5.0107    6.9614 C   0  0  0  0  0  0  0  0  0  0  0  0
    2.0447    0.1329    2.8133 H   0  0  0  0  0  0  0  0  0  0  0  0
    3.3824   -0.7657    2.1346 H   0  0  0  0  0  0  0  0  0  0  0  0
    3.6754    0.6692    3.1655 H   0  0  0  0  0  0  0  0  0  0  0  0
    2.3317   -1.9443    4.0240 H   0  0  0  0  0  0  0  0  0  0  0  0
    2.4427   -0.5198    5.0141 H   0  0  0  0  0  0  0  0  0  0  0  0
    3.7536   -2.2106    6.0048 H   0  0  0  0  0  0  0  0  0  0  0  0
    5.9957   -1.4361    4.1114 H   0  0  0  0  0  0  0  0  0  0  0  0
    7.2188   -1.6733    6.1062 H   0  0  0  0  0  0  0  0  0  0  0  0
    6.6019   -3.2711    5.2322 H   0  0  0  0  0  0  0  0  0  0  0  0
    7.6192   -4.6520    6.3380 H   0  0  0  0  0  0  0  0  0  0  0  0
    9.5361   -2.3328    5.6258 H   0  0  0  0  0  0  0  0  0  0  0  0
    8.5139   -3.1133    4.4326 H   0  0  0  0  0  0  0  0  0  0  0  0
    9.7369   -4.0476    5.2060 H   0  0  0  0  0  0  0  0  0  0  0  0
    9.6276   -3.0314    7.9084 H   0  0  0  0  0  0  0  0  0  0  0  0
    7.7934   -2.2227    8.6864 H   0  0  0  0  0  0  0  0  0  0  0  0
   10.8312   -4.3431    9.2687 H   0  0  0  0  0  0  0  0  0  0  0  0
   12.3438   -6.4604   10.3262 H   0  0  0  0  0  0  0  0  0  0  0  0
   11.0445   -8.6071   12.0067 H   0  0  0  0  0  0  0  0  0  0  0  0
   13.3802   -7.4188   13.5614 H   0  0  0  0  0  0  0  0  0  0  0  0
   10.7371   -7.9841   14.9063 H   0  0  0  0  0  0  0  0  0  0  0  0
   11.2846   -6.3087   14.4967 H   0  0  0  0  0  0  0  0  0  0  0  0
   12.2131   -7.3651   15.5554 H   0  0  0  0  0  0  0  0  0  0  0  0
   12.9497   -9.2738   14.9327 H   0  0  0  0  0  0  0  0  0  0  0  0
   15.0398   -9.5405   13.9669 H   0  0  0  0  0  0  0  0  0  0  0  0
   15.0782   -8.0562   12.9267 H   0  0  0  0  0  0  0  0  0  0  0  0
   16.2480   -9.3230   12.7182 H   0  0  0  0  0  0  0  0  0  0  0  0
   16.0006  -11.0920   11.8146 H   0  0  0  0  0  0  0  0  0  0  0  0
   15.1838  -10.6917   10.3407 H   0  0  0  0  0  0  0  0  0  0  0  0
   14.1313  -11.9635   13.8529 H   0  0  0  0  0  0  0  0  0  0  0  0
   15.6850  -12.8357   14.0051 H   0  0  0  0  0  0  0  0  0  0  0  0
   14.1540  -13.6355   14.4304 H   0  0  0  0  0  0  0  0  0  0  0  0
   14.3659  -15.0401   11.0869 H   0  0  0  0  0  0  0  0  0  0  0  0
   12.6421  -16.2877   12.5364 H   0  0  0  0  0  0  0  0  0  0  0  0
   12.5811  -14.8728   13.5362 H   0  0  0  0  0  0  0  0  0  0  0  0
   11.9594  -13.4802   11.5033 H   0  0  0  0  0  0  0  0  0  0  0  0
   11.6256  -16.1868   10.1294 H   0  0  0  0  0  0  0  0  0  0  0  0
   12.8735  -15.0049    9.6944 H   0  0  0  0  0  0  0  0  0  0  0  0
   11.1922  -14.6412    9.4542 H   0  0  0  0  0  0  0  0  0  0  0  0
   10.0858  -15.8222   12.0901 H   0  0  0  0  0  0  0  0  0  0  0  0
    9.6334  -14.2474   11.4206 H   0  0  0  0  0  0  0  0  0  0  0  0
   10.2447  -14.3521   13.0738 H   0  0  0  0  0  0  0  0  0  0  0  0
   16.4633  -17.4334   12.7519 H   0  0  0  0  0  0  0  0  0  0  0  0
   16.8578  -17.8844   10.6362 H   0  0  0  0  0  0  0  0  0  0  0  0
   15.9974  -15.0054   10.0548 H   0  0  0  0  0  0  0  0  0  0  0  0
   17.5974  -16.7768    8.1937 H   0  0  0  0  0  0  0  0  0  0  0  0
   17.2229  -15.0577    8.0023 H   0  0  0  0  0  0  0  0  0  0  0  0
   15.9180  -16.2337    7.9466 H   0  0  0  0  0  0  0  0  0  0  0  0
   18.8069  -16.1091   10.4225 H   0  0  0  0  0  0  0  0  0  0  0  0
   17.9094  -15.1992   11.6503 H   0  0  0  0  0  0  0  0  0  0  0  0
   18.3325  -14.4250   10.1317 H   0  0  0  0  0  0  0  0  0  0  0  0
   16.7099  -18.9986    8.9259 H   0  0  0  0  0  0  0  0  0  0  0  0
   15.7894  -19.1865    7.4356 H   0  0  0  0  0  0  0  0  0  0  0  0
   15.5571  -20.3471    8.7762 H   0  0  0  0  0  0  0  0  0  0  0  0
   12.6040  -18.0304    8.9787 H   0  0  0  0  0  0  0  0  0  0  0  0
   11.7376  -20.3626    8.6408 H   0  0  0  0  0  0  0  0  0  0  0  0
   13.3592  -20.9617    8.8392 H   0  0  0  0  0  0  0  0  0  0  0  0
   13.4080  -20.0529   11.1770 H   0  0  0  0  0  0  0  0  0  0  0  0
   10.3985  -19.5190   10.8677 H   0  0  0  0  0  0  0  0  0  0  0  0
   11.5875  -18.2314   10.9126 H   0  0  0  0  0  0  0  0  0  0  0  0
   11.4039  -19.2806   12.3044 H   0  0  0  0  0  0  0  0  0  0  0  0
   11.0104  -21.8688   10.5920 H   0  0  0  0  0  0  0  0  0  0  0  0
   11.9140  -21.7723   12.1117 H   0  0  0  0  0  0  0  0  0  0  0  0
   12.6974  -22.4075   10.6550 H   0  0  0  0  0  0  0  0  0  0  0  0
   12.1178  -18.0962    5.4521 H   0  0  0  0  0  0  0  0  0  0  0  0
   11.9767  -16.4731    7.8934 H   0  0  0  0  0  0  0  0  0  0  0  0
   10.8948  -15.8952    5.1287 H   0  0  0  0  0  0  0  0  0  0  0  0
   12.4174  -15.3668    5.8171 H   0  0  0  0  0  0  0  0  0  0  0  0
   10.9270  -14.8095    6.5353 H   0  0  0  0  0  0  0  0  0  0  0  0
    8.2837  -17.3528    8.2621 H   0  0  0  0  0  0  0  0  0  0  0  0
    7.0584  -16.3937    6.8264 H   0  0  0  0  0  0  0  0  0  0  0  0
    9.2962  -17.2500    5.0429 H   0  0  0  0  0  0  0  0  0  0  0  0
    7.9934  -16.2554    4.3762 H   0  0  0  0  0  0  0  0  0  0  0  0
    7.6420  -17.7917    5.1749 H   0  0  0  0  0  0  0  0  0  0  0  0
    5.8995  -15.0654    7.7437 H   0  0  0  0  0  0  0  0  0  0  0  0
    5.7311  -13.4259    7.1006 H   0  0  0  0  0  0  0  0  0  0  0  0
    6.0295  -13.7192    8.8409 H   0  0  0  0  0  0  0  0  0  0  0  0
    7.7145  -12.3406    8.8646 H   0  0  0  0  0  0  0  0  0  0  0  0
   10.2895  -13.2883    7.7362 H   0  0  0  0  0  0  0  0  0  0  0  0
    9.6736  -13.3027    9.3381 H   0  0  0  0  0  0  0  0  0  0  0  0
   10.0262  -10.5913    8.0367 H   0  0  0  0  0  0  0  0  0  0  0  0
   10.3397  -11.5500   10.9116 H   0  0  0  0  0  0  0  0  0  0  0  0
    8.8783  -10.8199   10.2287 H   0  0  0  0  0  0  0  0  0  0  0  0
   10.3450   -9.8783   10.3066 H   0  0  0  0  0  0  0  0  0  0  0  0
   12.3010  -12.1724    9.2841 H   0  0  0  0  0  0  0  0  0  0  0  0
   12.3661  -10.5779    8.4604 H   0  0  0  0  0  0  0  0  0  0  0  0
   12.0831  -12.0056    7.5412 H   0  0  0  0  0  0  0  0  0  0  0  0
   10.2283  -12.4625    5.9783 H   0  0  0  0  0  0  0  0  0  0  0  0
   10.3410  -10.7286    5.9351 H   0  0  0  0  0  0  0  0  0  0  0  0
   10.0650  -11.6502    4.4386 H   0  0  0  0  0  0  0  0  0  0  0  0
    8.0882  -11.1015    3.7617 H   0  0  0  0  0  0  0  0  0  0  0  0
    5.6866  -10.3438    5.3772 H   0  0  0  0  0  0  0  0  0  0  0  0
    5.9392  -11.6410    4.2569 H   0  0  0  0  0  0  0  0  0  0  0  0
    6.1209   -8.6638    3.4885 H   0  0  0  0  0  0  0  0  0  0  0  0
    6.0847  -11.1513    1.7306 H   0  0  0  0  0  0  0  0  0  0  0  0
    7.4240  -10.0102    1.9336 H   0  0  0  0  0  0  0  0  0  0  0  0
    5.9431   -9.4731    1.1617 H   0  0  0  0  0  0  0  0  0  0  0  0
    3.8027  -10.6072    3.1407 H   0  0  0  0  0  0  0  0  0  0  0  0
    3.9080   -8.9666    2.4665 H   0  0  0  0  0  0  0  0  0  0  0  0
    3.8622   -9.1975    4.2169 H   0  0  0  0  0  0  0  0  0  0  0  0
    6.2438   -8.3934    5.5661 H   0  0  0  0  0  0  0  0  0  0  0  0
    6.8805   -6.8020    5.7840 H   0  0  0  0  0  0  0  0  0  0  0  0
    6.9799   -8.0416    7.1021 H   0  0  0  0  0  0  0  0  0  0  0  0
    9.8547   -8.5157    6.8874 H   0  0  0  0  0  0  0  0  0  0  0  0
   11.5363   -6.8658    5.8633 H   0  0  0  0  0  0  0  0  0  0  0  0
   11.5400   -9.4259    4.4776 H   0  0  0  0  0  0  0  0  0  0  0  0
   11.8832   -9.1684    6.2073 H   0  0  0  0  0  0  0  0  0  0  0  0
   12.8276   -8.3375    4.9919 H   0  0  0  0  0  0  0  0  0  0  0  0
   10.2948   -7.3125    3.1636 H   0  0  0  0  0  0  0  0  0  0  0  0
   11.5485   -6.2217    3.6842 H   0  0  0  0  0  0  0  0  0  0  0  0
    9.8688   -5.9373    4.1599 H   0  0  0  0  0  0  0  0  0  0  0  0
   12.4721   -5.4858    7.1186 H   0  0  0  0  0  0  0  0  0  0  0  0
   11.5845   -3.9721    7.2988 H   0  0  0  0  0  0  0  0  0  0  0  0
   11.2687   -4.9572    5.9026 H   0  0  0  0  0  0  0  0  0  0  0  0
  1  2  1  0  0  0  0
  1 88  1  0  0  0  0
  1 89  1  0  0  0  0
  1 90  1  0  0  0  0
  2  3  1  0  0  0  0
  2 91  1  0  0  0  0
  2 92  1  0  0  0  0
  3  4  2  0  0  0  0
  3 93  1  0  0  0  0
  4  5  1  0  0  0  0
  4 94  1  0  0  0  0
  5  6  1  0  0  0  0
  5 95  1  0  0  0  0
  5 96  1  0  0  0  0
  6  7  1  0  0  0  0
  6  8  1  0  0  0  0
  6 97  1  6  0  0  0
  7 98  1  0  0  0  0
  7 99  1  0  0  0  0
  7100  1  0  0  0  0
  8  9  1  0  0  0  0
  8 10  1  0  0  0  0
  8101  1  6  0  0  0
  9102  1  0  0  0  0
 10 11  1  0  0  0  0
 10 86  1  0  0  0  0
 10103  1  1  0  0  0
 11 12  2  0  0  0  0
 11 13  1  0  0  0  0
 13 14  1  0  0  0  0
 13104  1  0  0  0  0
 14 15  1  0  0  0  0
 14 18  1  0  0  0  0
 14105  1  6  0  0  0
 15 16  1  0  0  0  0
 15 17  1  0  0  0  0
 15106  1  1  0  0  0
 16107  1  0  0  0  0
 16108  1  0  0  0  0
 16109  1  0  0  0  0
 17110  1  0  0  0  0
 18 19  2  0  0  0  0
 18 20  1  0  0  0  0
 20 21  1  0  0  0  0
 20 22  1  0  0  0  0
 21111  1  0  0  0  0
 21112  1  0  0  0  0
 21113  1  0  0  0  0
 22 23  1  0  0  0  0
 22114  1  0  0  0  0
 22115  1  0  0  0  0
 23 24  2  0  0  0  0
 23 25  1  0  0  0  0
 25 26  1  0  0  0  0
 25 27  1  0  0  0  0
 26116  1  0  0  0  0
 26117  1  0  0  0  0
 26118  1  0  0  0  0
 27 32  1  0  0  0  0
 27 28  1  0  0  0  0
 27119  1  6  0  0  0
 28 29  1  0  0  0  0
 28120  1  0  0  0  0
 28121  1  0  0  0  0
 29 30  1  0  0  0  0
 29 31  1  0  0  0  0
 29122  1  0  0  0  0
 30123  1  0  0  0  0
 30124  1  0  0  0  0
 30125  1  0  0  0  0
 31126  1  0  0  0  0
 31127  1  0  0  0  0
 31128  1  0  0  0  0
 32 33  2  0  0  0  0
 32 34  1  0  0  0  0
 34 35  1  0  0  0  0
 34129  1  0  0  0  0
 35 39  1  0  0  0  0
 35 36  1  0  0  0  0
 35130  1  6  0  0  0
 36 37  1  0  0  0  0
 36 38  1  0  0  0  0
 36131  1  0  0  0  0
 37132  1  0  0  0  0
 37133  1  0  0  0  0
 37134  1  0  0  0  0
 38135  1  0  0  0  0
 38136  1  0  0  0  0
 38137  1  0  0  0  0
 39 40  2  0  0  0  0
 39 41  1  0  0  0  0
 41 42  1  0  0  0  0
 41 43  1  0  0  0  0
 42138  1  0  0  0  0
 42139  1  0  0  0  0
 42140  1  0  0  0  0
 43 48  1  0  0  0  0
 43 44  1  0  0  0  0
 43141  1  1  0  0  0
 44 45  1  0  0  0  0
 44142  1  0  0  0  0
 44143  1  0  0  0  0
 45 46  1  0  0  0  0
 45 47  1  0  0  0  0
 45144  1  0  0  0  0
 46145  1  0  0  0  0
 46146  1  0  0  0  0
 46147  1  0  0  0  0
 47148  1  0  0  0  0
 47149  1  0  0  0  0
 47150  1  0  0  0  0
 48 49  2  0  0  0  0
 48 50  1  0  0  0  0
 50 51  1  0  0  0  0
 50151  1  0  0  0  0
 51 52  1  0  0  0  0
 51 53  1  0  0  0  0
 51152  1  1  0  0  0
 52153  1  0  0  0  0
 52154  1  0  0  0  0
 52155  1  0  0  0  0
 53 54  2  0  0  0  0
 53 55  1  0  0  0  0
 55 56  1  0  0  0  0
 55156  1  0  0  0  0
 56 58  1  0  0  0  0
 56 57  1  0  0  0  0
 56157  1  1  0  0  0
 57158  1  0  0  0  0
 57159  1  0  0  0  0
 57160  1  0  0  0  0
 58 59  2  0  0  0  0
 58 60  1  0  0  0  0
 60 61  1  0  0  0  0
 60 62  1  0  0  0  0
 61161  1  0  0  0  0
 61162  1  0  0  0  0
 61163  1  0  0  0  0
 62 63  1  0  0  0  0
 62 67  1  0  0  0  0
 62164  1  1  0  0  0
 63 64  1  0  0  0  0
 63165  1  0  0  0  0
 63166  1  0  0  0  0
 64 65  1  0  0  0  0
 64 66  1  0  0  0  0
 64167  1  0  0  0  0
 65168  1  0  0  0  0
 65169  1  0  0  0  0
 65170  1  0  0  0  0
 66171  1  0  0  0  0
 66172  1  0  0  0  0
 66173  1  0  0  0  0
 67 68  2  0  0  0  0
 67 69  1  0  0  0  0
 69 70  1  0  0  0  0
 69 71  1  0  0  0  0
 70174  1  0  0  0  0
 70175  1  0  0  0  0
 70176  1  0  0  0  0
 71 72  1  0  0  0  0
 71 76  1  0  0  0  0
 71177  1  6  0  0  0
 72 73  1  0  0  0  0
 72178  1  0  0  0  0
 72179  1  0  0  0  0
 73 74  1  0  0  0  0
 73 75  1  0  0  0  0
 73180  1  0  0  0  0
 74181  1  0  0  0  0
 74182  1  0  0  0  0
 74183  1  0  0  0  0
 75184  1  0  0  0  0
 75185  1  0  0  0  0
 75186  1  0  0  0  0
 76 77  2  0  0  0  0
 76 78  1  0  0  0  0
 78 79  1  0  0  0  0
 78 80  1  0  0  0  0
 79187  1  0  0  0  0
 79188  1  0  0  0  0
 79189  1  0  0  0  0
 80 81  1  0  0  0  0
 80 84  1  0  0  0  0
 80190  1  1  0  0  0
 81 82  1  0  0  0  0
 81 83  1  0  0  0  0
 81191  1  0  0  0  0
 82192  1  0  0  0  0
 82193  1  0  0  0  0
 82194  1  0  0  0  0
 83195  1  0  0  0  0
 83196  1  0  0  0  0
 83197  1  0  0  0  0
 84 85  2  0  0  0  0
 84 86  1  0  0  0  0
 86 87  1  0  0  0  0
 87198  1  0  0  0  0
 87199  1  0  0  0  0
 87200  1  0  0  0  0
M  END
>  <Energy>
785.715

$$$$