18
 OpenBabel03302012423D

 76 81  0  0  0  0  0  0  0  0999 V2000
    0.2991   -0.0213   -1.0731 C   0  0  0  0  0  0  0  0  0  0  0  0
    1.7506   -0.2391   -1.0410 N   0  3  0  0  0  0  0  0  0  0  0  0
    2.1491   -1.5873   -0.6089 C   0  0  0  0  0  0  0  0  0  0  0  0
    2.5966    0.7484   -1.3470 C   0  0  0  0  0  0  0  0  0  0  0  0
    4.0161    0.6454   -1.3498 C   0  0  0  0  0  0  0  0  0  0  0  0
    4.8795    1.7611   -1.5933 C   0  0  0  0  0  0  0  0  0  0  0  0
    4.4183    3.0693   -1.9230 C   0  0  0  0  0  0  0  0  0  0  0  0
    5.2396    4.2892   -2.1864 C   0  0  0  0  0  0  0  0  0  0  0  0
    6.7774    4.2199   -2.0502 C   0  0  0  0  0  0  0  0  0  0  0  0
    7.6485    5.2461   -1.6182 C   0  0  0  0  0  0  0  0  0  0  0  0
    9.0094    4.8961   -1.5646 C   0  0  0  0  0  0  0  0  0  0  0  0
    9.2791    3.5706   -1.8919 C   0  0  0  0  0  0  0  0  0  0  0  0
   10.6428    2.9254   -1.8603 C   0  0  0  0  0  0  0  0  0  0  0  0
   11.7742    3.7904   -2.1262 S   0  0  0  0  0  0  0  0  0  0  0  0
   10.8720    1.5364   -1.4781 N   0  0  0  0  0  0  0  0  0  0  0  0
    9.8455    0.7094   -0.8517 C   0  0  0  0  0  0  0  0  0  0  0  0
   10.3546    0.2687    0.5339 C   0  0  0  0  0  0  0  0  0  0  0  0
   11.5974   -0.4071    0.4316 O   0  0  0  0  0  0  0  0  0  0  0  0
   12.5763    0.4691   -0.1049 C   0  0  0  0  0  0  0  0  0  0  0  0
   12.1861    0.8872   -1.5280 C   0  0  0  0  0  0  0  0  0  0  0  0
    7.7940    2.8883   -2.3074 S   0  0  0  0  0  0  0  0  0  0  0  0
    4.6000    5.5981   -2.5764 C   0  0  0  0  0  0  0  0  0  0  0  0
    5.3341    6.8034   -2.9456 C   0  0  0  0  0  0  0  0  0  0  0  0
    4.6950    8.0203   -3.3290 C   0  0  0  0  0  0  0  0  0  0  0  0
    3.2987    8.0792   -3.3704 C   0  0  0  0  0  0  0  0  0  0  0  0
    2.5517    6.9678   -3.0142 C   0  0  0  0  0  0  0  0  0  0  0  0
    3.1863    5.7648   -2.6511 C   0  0  0  0  0  0  0  0  0  0  0  0
    2.1924    4.5018   -2.2999 S   0  0  0  0  0  0  0  0  0  0  0  0
    2.9396    3.1040   -1.9532 C   0  0  0  0  0  0  0  0  0  0  0  0
    2.1061    2.0270   -1.6755 C   0  0  0  0  0  0  0  0  0  0  0  0
    1.0173    7.0462   -3.0142 C   0  0  0  0  0  0  0  0  0  0  0  0
    0.4586    8.4542   -3.1971 C   0  0  0  0  0  0  0  0  0  0  0  0
    1.2513    9.1610   -4.2811 C   0  0  0  0  0  0  0  0  0  0  0  0
    2.6278    9.2683   -3.8050 N   0  0  0  0  0  0  0  0  0  0  0  0
    3.2826   10.5477   -3.6629 C   0  0  0  0  0  0  0  0  0  0  0  0
    4.6818   10.4686   -4.2507 C   0  0  0  0  0  0  0  0  0  0  0  0
    5.5076    9.2718   -3.6887 C   0  0  0  0  0  0  0  0  0  0  0  0
    3.5058   -1.3898    3.0011 F   0  0  0  0  0  0  0  0  0  0  0  0
    4.2529   -0.0325    2.2567 P   0  5  0  0  0  0  0  0  0  0  0  0
    4.9907    1.3209    1.5012 F   0  0  0  0  0  0  0  0  0  0  0  0
    2.7410    0.4362    1.6022 F   0  0  0  0  0  0  0  0  0  0  0  0
    3.9194    0.9171    3.6424 F   0  0  0  0  0  0  0  0  0  0  0  0
    4.6482   -1.0081    0.9188 F   0  0  0  0  0  0  0  0  0  0  0  0
    5.7721   -0.4941    2.9189 F   0  0  0  0  0  0  0  0  0  0  0  0
   -0.2963   -0.9043   -0.7633 H   0  0  0  0  0  0  0  0  0  0  0  0
   -0.0156    0.2342   -2.1024 H   0  0  0  0  0  0  0  0  0  0  0  0
    0.0225    0.7853   -0.3588 H   0  0  0  0  0  0  0  0  0  0  0  0
    1.2728   -2.2534   -0.4205 H   0  0  0  0  0  0  0  0  0  0  0  0
    2.5963   -1.5850    0.3912 H   0  0  0  0  0  0  0  0  0  0  0  0
    2.7807   -2.1111   -1.3500 H   0  0  0  0  0  0  0  0  0  0  0  0
    4.4942   -0.2968   -1.1588 H   0  0  0  0  0  0  0  0  0  0  0  0
    5.9196    1.5229   -1.5117 H   0  0  0  0  0  0  0  0  0  0  0  0
    7.3539    6.2332   -1.2988 H   0  0  0  0  0  0  0  0  0  0  0  0
    9.7745    5.5932   -1.2424 H   0  0  0  0  0  0  0  0  0  0  0  0
    9.6728   -0.1947   -1.4770 H   0  0  0  0  0  0  0  0  0  0  0  0
    8.8919    1.2266   -0.6966 H   0  0  0  0  0  0  0  0  0  0  0  0
    9.6120   -0.4226    0.9882 H   0  0  0  0  0  0  0  0  0  0  0  0
   10.4437    1.1403    1.2221 H   0  0  0  0  0  0  0  0  0  0  0  0
   13.5504   -0.0603   -0.1252 H   0  0  0  0  0  0  0  0  0  0  0  0
   12.7060    1.3605    0.5528 H   0  0  0  0  0  0  0  0  0  0  0  0
   12.1267   -0.0219   -2.1662 H   0  0  0  0  0  0  0  0  0  0  0  0
   12.9889    1.5272   -1.9476 H   0  0  0  0  0  0  0  0  0  0  0  0
    6.3985    6.8311   -3.0043 H   0  0  0  0  0  0  0  0  0  0  0  0
    1.0489    2.2219   -1.7139 H   0  0  0  0  0  0  0  0  0  0  0  0
    0.6052    6.6780   -2.0549 H   0  0  0  0  0  0  0  0  0  0  0  0
    0.6633    6.3816   -3.8315 H   0  0  0  0  0  0  0  0  0  0  0  0
    0.5770    9.0306   -2.2512 H   0  0  0  0  0  0  0  0  0  0  0  0
   -0.6264    8.3785   -3.4303 H   0  0  0  0  0  0  0  0  0  0  0  0
    0.8070   10.1569   -4.4799 H   0  0  0  0  0  0  0  0  0  0  0  0
    1.2160    8.5600   -5.2108 H   0  0  0  0  0  0  0  0  0  0  0  0
    2.6962   11.3587   -4.1617 H   0  0  0  0  0  0  0  0  0  0  0  0
    3.3447   10.7975   -2.5798 H   0  0  0  0  0  0  0  0  0  0  0  0
    5.2239   11.4284   -4.0682 H   0  0  0  0  0  0  0  0  0  0  0  0
    4.5663   10.3549   -5.3476 H   0  0  0  0  0  0  0  0  0  0  0  0
    6.0295    9.5939   -2.7632 H   0  0  0  0  0  0  0  0  0  0  0  0
    6.2824    9.0428   -4.4515 H   0  0  0  0  0  0  0  0  0  0  0  0
  1  2  1  0  0  0  0
  1 45  1  0  0  0  0
  1 46  1  0  0  0  0
  1 47  1  0  0  0  0
  2  3  1  0  0  0  0
  2  4  2  0  0  0  0
  3 48  1  0  0  0  0
  3 49  1  0  0  0  0
  3 50  1  0  0  0  0
  4  5  1  0  0  0  0
  4 30  1  0  0  0  0
  5  6  2  0  0  0  0
  5 51  1  0  0  0  0
  6  7  1  0  0  0  0
  6 52  1  0  0  0  0
  7  8  2  0  0  0  0
  7 29  1  0  0  0  0
  8  9  1  0  0  0  0
  8 22  1  0  0  0  0
  9 10  2  0  0  0  0
  9 21  1  0  0  0  0
 10 11  1  0  0  0  0
 10 53  1  0  0  0  0
 11 12  2  0  0  0  0
 11 54  1  0  0  0  0
 12 13  1  0  0  0  0
 12 21  1  0  0  0  0
 13 14  2  0  0  0  0
 13 15  1  0  0  0  0
 15 16  1  0  0  0  0
 15 20  1  0  0  0  0
 16 17  1  0  0  0  0
 16 55  1  0  0  0  0
 16 56  1  0  0  0  0
 17 18  1  0  0  0  0
 17 57  1  0  0  0  0
 17 58  1  0  0  0  0
 18 19  1  0  0  0  0
 19 20  1  0  0  0  0
 19 59  1  0  0  0  0
 19 60  1  0  0  0  0
 20 61  1  0  0  0  0
 20 62  1  0  0  0  0
 22 23  1  0  0  0  0
 22 27  2  0  0  0  0
 23 24  2  0  0  0  0
 23 63  1  0  0  0  0
 24 25  1  0  0  0  0
 24 37  1  0  0  0  0
 25 26  2  0  0  0  0
 25 34  1  0  0  0  0
 26 27  1  0  0  0  0
 26 31  1  0  0  0  0
 27 28  1  0  0  0  0
 28 29  1  0  0  0  0
 29 30  2  0  0  0  0
 30 64  1  0  0  0  0
 31 32  1  0  0  0  0
 31 65  1  0  0  0  0
 31 66  1  0  0  0  0
 32 33  1  0  0  0  0
 32 67  1  0  0  0  0
 32 68  1  0  0  0  0
 33 34  1  0  0  0  0
 33 69  1  0  0  0  0
 33 70  1  0  0  0  0
 34 35  1  0  0  0  0
 35 36  1  0  0  0  0
 35 71  1  0  0  0  0
 35 72  1  0  0  0  0
 36 37  1  0  0  0  0
 36 73  1  0  0  0  0
 36 74  1  0  0  0  0
 37 75  1  0  0  0  0
 37 76  1  0  0  0  0
 38 39  1  0  0  0  0
 39 40  1  0  0  0  0
 39 41  1  0  0  0  0
 39 42  1  0  0  0  0
 39 43  1  0  0  0  0
 39 44  1  0  0  0  0
M  CHG  2   2   1  39  -1
M  END
$$$$