122
 OpenBabel03292022003D

167170  0  0  1  0  0  0  0  0999 V2000
    4.6484   -1.4106   -1.2401 C   0  0  0  0  0  0  0  0  0  0  0  0
    3.3052   -0.7592   -1.5816 C   0  0  0  0  0  0  0  0  0  0  0  0
    2.0141   -0.9652   -0.6508 C   0  0  2  0  0  0  0  0  0  0  0  0
    2.5009   -1.3358    0.7625 C   0  0  0  0  0  0  0  0  0  0  0  0
    0.9524    0.3134   -0.5414 C   0  0  2  0  0  0  0  0  0  0  0  0
   -0.6717    0.0321   -1.1418 N   0  0  0  0  0  0  0  0  0  0  0  0
   -2.4828    0.7866   -1.1524 C   0  0  0  0  0  0  0  0  0  0  0  0
   -2.9298    1.8485   -0.6037 O   0  0  0  0  0  0  0  0  0  0  0  0
   -3.9692    0.3530   -2.1143 C   0  0  2  0  0  0  0  0  0  0  0  0
   -5.2265    1.0503   -1.4809 C   0  0  0  0  0  0  0  0  0  0  0  0
   -5.9279   -0.0679   -0.7393 C   0  0  0  0  0  0  0  0  0  0  0  0
   -5.6187   -1.3082   -1.5737 C   0  0  0  0  0  0  0  0  0  0  0  0
   -4.6266   -0.8938   -2.5738 N   0  0  0  0  0  0  0  0  0  0  0  0
   -4.9637   -1.2166   -3.9047 C   0  0  0  0  0  0  0  0  0  0  0  0
   -5.4067   -2.3420   -4.1600 O   0  0  0  0  0  0  0  0  0  0  0  0
   -4.8681   -0.1240   -5.0287 C   0  0  2  0  0  0  0  0  0  0  0  0
   -5.5851   -0.4514   -6.3599 C   0  0  0  0  0  0  0  0  0  0  0  0
   -7.0917   -0.4618   -6.3444 C   0  0  0  0  0  0  0  0  0  0  0  0
   -7.8297    0.6995   -6.6110 C   0  0  0  0  0  0  0  0  0  0  0  0
   -9.2245    0.6484   -6.6666 C   0  0  0  0  0  0  0  0  0  0  0  0
   -9.8903   -0.5572   -6.4481 C   0  0  0  0  0  0  0  0  0  0  0  0
   -9.1640   -1.7137   -6.1779 C   0  0  0  0  0  0  0  0  0  0  0  0
   -7.7728   -1.6660   -6.1300 C   0  0  0  0  0  0  0  0  0  0  0  0
   -3.4553    0.2489   -5.3251 N   0  0  0  0  0  0  0  0  0  0  0  0
   -2.6551   -0.6706   -6.1359 C   0  0  0  0  0  0  0  0  0  0  0  0
   -3.0947    1.5658   -5.0690 C   0  0  0  0  0  0  0  0  0  0  0  0
   -3.9424    2.3661   -4.6715 O   0  0  0  0  0  0  0  0  0  0  0  0
   -1.6427    2.0081   -5.2085 C   0  0  2  0  0  0  0  0  0  0  0  0
   -0.8870    2.1857   -3.8835 C   0  0  0  0  0  0  0  0  0  0  0  0
   -1.1235    1.2987   -2.6836 C   0  0  0  0  0  0  0  0  0  0  0  0
   -1.7595   -0.4000   -2.7879 C   0  0  0  0  0  0  0  0  0  0  0  0
   -2.2058   -1.3158   -1.2638 C   0  0  0  0  0  0  0  0  0  0  0  0
   -1.9504   -0.5561    0.3643 C   0  0  0  0  0  0  0  0  0  0  0  0
   -1.2428    1.1047    0.5013 C   0  0  0  0  0  0  0  0  0  0  0  0
   -0.8328    2.0527   -1.0356 C   0  0  0  0  0  0  0  0  0  0  0  0
   -1.5850    3.2228   -6.0591 N   0  0  0  0  0  0  0  0  0  0  0  0
   -1.9509    4.5271   -5.8732 C   0  0  0  0  0  0  0  0  0  0  0  0
   -1.4450    5.3033   -6.6971 O   0  0  0  0  0  0  0  0  0  0  0  0
   -2.9715    5.0439   -4.7919 C   0  0  2  0  0  0  0  0  0  0  0  0
   -4.3926    5.3755   -5.3933 C   0  0  0  0  0  0  0  0  0  0  0  0
   -5.3928    5.7132   -4.2745 C   0  0  0  0  0  0  0  0  0  0  0  0
   -5.0382    4.3309   -6.3097 C   0  0  0  0  0  0  0  0  0  0  0  0
   -2.4274    6.2862   -4.1071 N   0  0  0  0  0  0  0  0  0  0  0  0
   -2.3734    7.4906   -4.9373 C   0  0  0  0  0  0  0  0  0  0  0  0
   -1.8856    6.1606   -2.8359 C   0  0  0  0  0  0  0  0  0  0  0  0
   -1.5442    5.0393   -2.4398 O   0  0  0  0  0  0  0  0  0  0  0  0
   -1.8000    7.3060   -1.7508 C   0  0  1  0  0  0  0  0  0  0  0  0
   -1.4643    8.7332   -2.2366 C   0  0  1  0  0  0  0  0  0  0  0  0
   -2.7232    9.5125   -2.6484 C   0  0  0  0  0  0  0  0  0  0  0  0
   -0.6802    9.5582   -1.1906 C   0  0  0  0  0  0  0  0  0  0  0  0
   -0.1818   10.8778   -1.7810 C   0  0  0  0  0  0  0  0  0  0  0  0
   -2.9878    7.3534   -0.9108 O   0  0  0  0  0  0  0  0  0  0  0  0
   -2.9621    6.9340    0.3916 C   0  0  0  0  0  0  0  0  0  0  0  0
   -3.2887    7.6925    1.3038 O   0  0  0  0  0  0  0  0  0  0  0  0
   -2.7241    5.4230    0.6207 C   0  0  2  0  0  0  0  0  0  0  0  0
   -4.0245    4.5732    0.4471 C   0  0  0  0  0  0  0  0  0  0  0  0
   -4.6265    4.7732   -0.9479 C   0  0  0  0  0  0  0  0  0  0  0  0
   -5.1622    4.7105    1.4602 C   0  0  0  0  0  0  0  0  0  0  0  0
   -1.9343    5.1601    1.8646 N   0  0  0  0  0  0  0  0  0  0  0  0
   -2.5955    5.0722    3.1537 C   0  0  0  0  0  0  0  0  0  0  0  0
   -0.5863    5.4988    1.8256 C   0  0  0  0  0  0  0  0  0  0  0  0
   -0.1426    6.2771    0.9814 O   0  0  0  0  0  0  0  0  0  0  0  0
    0.3581    4.8060    2.8426 C   0  0  2  0  0  0  0  0  0  0  0  0
    1.5846    5.6384    3.2267 C   0  0  0  0  0  0  0  0  0  0  0  0
    1.2275    7.0677    3.6882 C   0  0  0  0  0  0  0  0  0  0  0  0
    0.6035    7.0781    5.0833 C   0  0  0  0  0  0  0  0  0  0  0  0
    2.4556    7.9744    3.6500 C   0  0  0  0  0  0  0  0  0  0  0  0
    0.6947    3.4293    2.4658 N   0  0  0  0  0  0  0  0  0  0  0  0
    1.5571    2.8127    1.6321 C   0  0  0  0  0  0  0  0  0  0  0  0
    1.8796    1.6939    2.0774 O   0  0  0  0  0  0  0  0  0  0  0  0
    2.2623    3.3302    0.3252 C   0  0  2  0  0  0  0  0  0  0  0  0
    1.7405    4.4968   -0.5665 C   0  0  0  0  0  0  0  0  0  0  0  0
    1.6590    4.2891   -2.0931 C   0  0  0  0  0  0  0  0  0  0  0  0
    2.6594    5.7203   -0.4476 C   0  0  0  0  0  0  0  0  0  0  0  0
    2.6569    2.1696   -0.5060 N   0  0  0  0  0  0  0  0  0  0  0  0
    1.7468    1.4329   -1.2494 C   0  0  0  0  0  0  0  0  0  0  0  0
    1.8438    1.4658   -2.4829 O   0  0  0  0  0  0  0  0  0  0  0  0
    5.3993   -1.0818   -1.9745 H   0  0  0  0  0  0  0  0  0  0  0  0
    4.6141   -2.4992   -1.2644 H   0  0  0  0  0  0  0  0  0  0  0  0
    5.0268   -1.0688   -0.2690 H   0  0  0  0  0  0  0  0  0  0  0  0
    3.0333   -1.0192   -2.6109 H   0  0  0  0  0  0  0  0  0  0  0  0
    3.6213    0.2806   -1.6148 H   0  0  0  0  0  0  0  0  0  0  0  0
    1.4686   -1.8294   -1.0451 H   0  0  0  0  0  0  0  0  0  0  0  0
    3.0080   -0.4896    1.2383 H   0  0  0  0  0  0  0  0  0  0  0  0
    3.2113   -2.1697    0.7405 H   0  0  0  0  0  0  0  0  0  0  0  0
    1.6691   -1.6484    1.3982 H   0  0  0  0  0  0  0  0  0  0  0  0
    0.8451    0.4899    0.5204 H   0  0  0  0  0  0  0  0  0  0  0  0
   -0.4139   -0.8477   -1.6025 H   0  0  0  0  0  0  0  0  0  0  0  0
   -3.8024    0.9688   -2.9761 H   0  0  0  0  0  0  0  0  0  0  0  0
   -5.8839    1.4212   -2.2811 H   0  0  0  0  0  0  0  0  0  0  0  0
   -5.0573    1.8972   -0.8182 H   0  0  0  0  0  0  0  0  0  0  0  0
   -7.0039    0.1257   -0.6532 H   0  0  0  0  0  0  0  0  0  0  0  0
   -5.5291   -0.1644    0.2764 H   0  0  0  0  0  0  0  0  0  0  0  0
   -6.5369   -1.6824   -2.0407 H   0  0  0  0  0  0  0  0  0  0  0  0
   -5.1945   -2.0938   -0.9438 H   0  0  0  0  0  0  0  0  0  0  0  0
   -5.4052    0.7338   -4.6057 H   0  0  0  0  0  0  0  0  0  0  0  0
   -5.2787    0.2941   -7.1100 H   0  0  0  0  0  0  0  0  0  0  0  0
   -5.2425   -1.4113   -6.7633 H   0  0  0  0  0  0  0  0  0  0  0  0
   -7.3269    1.6454   -6.8026 H   0  0  0  0  0  0  0  0  0  0  0  0
   -9.7936    1.5470   -6.8909 H   0  0  0  0  0  0  0  0  0  0  0  0
  -10.9749   -0.5983   -6.4938 H   0  0  0  0  0  0  0  0  0  0  0  0
   -9.6749   -2.6582   -6.0131 H   0  0  0  0  0  0  0  0  0  0  0  0
   -7.2179   -2.5827   -5.9385 H   0  0  0  0  0  0  0  0  0  0  0  0
   -3.1604   -1.6322   -6.2534 H   0  0  0  0  0  0  0  0  0  0  0  0
   -1.6833   -0.8603   -5.6784 H   0  0  0  0  0  0  0  0  0  0  0  0
   -2.4776   -0.2156   -7.1133 H   0  0  0  0  0  0  0  0  0  0  0  0
   -1.1000    1.2558   -5.7880 H   0  0  0  0  0  0  0  0  0  0  0  0
    0.1827    2.1611   -4.1188 H   0  0  0  0  0  0  0  0  0  0  0  0
   -1.0740    3.1958   -3.5408 H   0  0  0  0  0  0  0  0  0  0  0  0
   -1.8586   -0.9247   -3.7222 H   0  0  0  0  0  0  0  0  0  0  0  0
   -2.6402   -2.3111   -1.3440 H   0  0  0  0  0  0  0  0  0  0  0  0
   -2.3458   -1.0420    1.2480 H   0  0  0  0  0  0  0  0  0  0  0  0
   -1.2759    1.6345    1.4493 H   0  0  0  0  0  0  0  0  0  0  0  0
   -0.6515    3.1160   -0.9531 H   0  0  0  0  0  0  0  0  0  0  0  0
   -0.9001    3.1813   -6.8040 H   0  0  0  0  0  0  0  0  0  0  0  0
   -3.0770    4.2889   -4.0168 H   0  0  0  0  0  0  0  0  0  0  0  0
   -4.3020    6.2680   -6.0218 H   0  0  0  0  0  0  0  0  0  0  0  0
   -5.5668    4.8443   -3.6316 H   0  0  0  0  0  0  0  0  0  0  0  0
   -6.3600    6.0127   -4.6931 H   0  0  0  0  0  0  0  0  0  0  0  0
   -5.0420    6.5382   -3.6472 H   0  0  0  0  0  0  0  0  0  0  0  0
   -5.5612    3.5508   -5.7491 H   0  0  0  0  0  0  0  0  0  0  0  0
   -4.3222    3.8708   -6.9936 H   0  0  0  0  0  0  0  0  0  0  0  0
   -5.8099    4.8112   -6.9239 H   0  0  0  0  0  0  0  0  0  0  0  0
   -2.3432    7.2497   -6.0006 H   0  0  0  0  0  0  0  0  0  0  0  0
   -1.4752    8.0682   -4.7485 H   0  0  0  0  0  0  0  0  0  0  0  0
   -3.2805    8.0756   -4.7868 H   0  0  0  0  0  0  0  0  0  0  0  0
   -0.9509    6.9973   -1.1329 H   0  0  0  0  0  0  0  0  0  0  0  0
   -0.7723    8.6386   -3.0765 H   0  0  0  0  0  0  0  0  0  0  0  0
   -3.0815   10.1686   -1.8495 H   0  0  0  0  0  0  0  0  0  0  0  0
   -3.5583    8.8538   -2.8994 H   0  0  0  0  0  0  0  0  0  0  0  0
   -2.5092   10.1353   -3.5239 H   0  0  0  0  0  0  0  0  0  0  0  0
    0.1897    8.9886   -0.8427 H   0  0  0  0  0  0  0  0  0  0  0  0
   -1.3049    9.7610   -0.3134 H   0  0  0  0  0  0  0  0  0  0  0  0
    0.4479   10.6982   -2.6596 H   0  0  0  0  0  0  0  0  0  0  0  0
    0.4110   11.4290   -1.0459 H   0  0  0  0  0  0  0  0  0  0  0  0
   -1.0112   11.5225   -2.0891 H   0  0  0  0  0  0  0  0  0  0  0  0
   -2.0425    5.0979   -0.1672 H   0  0  0  0  0  0  0  0  0  0  0  0
   -3.7154    3.5334    0.5367 H   0  0  0  0  0  0  0  0  0  0  0  0
   -5.0036    5.7924   -1.0777 H   0  0  0  0  0  0  0  0  0  0  0  0
   -5.4726    4.1018   -1.1210 H   0  0  0  0  0  0  0  0  0  0  0  0
   -3.8918    4.5642   -1.7250 H   0  0  0  0  0  0  0  0  0  0  0  0
   -5.4175    5.7532    1.6591 H   0  0  0  0  0  0  0  0  0  0  0  0
   -4.9242    4.2014    2.3983 H   0  0  0  0  0  0  0  0  0  0  0  0
   -6.0651    4.2046    1.0954 H   0  0  0  0  0  0  0  0  0  0  0  0
   -3.5511    5.5920    3.1433 H   0  0  0  0  0  0  0  0  0  0  0  0
   -2.0110    5.5753    3.9262 H   0  0  0  0  0  0  0  0  0  0  0  0
   -2.7132    4.0181    3.4202 H   0  0  0  0  0  0  0  0  0  0  0  0
   -0.1975    4.6599    3.7720 H   0  0  0  0  0  0  0  0  0  0  0  0
    2.1446    5.1229    4.0190 H   0  0  0  0  0  0  0  0  0  0  0  0
    2.2674    5.6813    2.3828 H   0  0  0  0  0  0  0  0  0  0  0  0
    0.5007    7.5090    2.9989 H   0  0  0  0  0  0  0  0  0  0  0  0
    1.3050    6.7027    5.8351 H   0  0  0  0  0  0  0  0  0  0  0  0
   -0.2968    6.4605    5.1286 H   0  0  0  0  0  0  0  0  0  0  0  0
    0.3127    8.0953    5.3648 H   0  0  0  0  0  0  0  0  0  0  0  0
    3.1713    7.7166    4.4361 H   0  0  0  0  0  0  0  0  0  0  0  0
    2.1551    9.0188    3.7882 H   0  0  0  0  0  0  0  0  0  0  0  0
    2.9642    7.9056    2.6824 H   0  0  0  0  0  0  0  0  0  0  0  0
    0.4864    2.7638    3.2032 H   0  0  0  0  0  0  0  0  0  0  0  0
    3.2262    3.6620    0.7392 H   0  0  0  0  0  0  0  0  0  0  0  0
    0.7338    4.7343   -0.2509 H   0  0  0  0  0  0  0  0  0  0  0  0
    2.6128    3.9618   -2.5210 H   0  0  0  0  0  0  0  0  0  0  0  0
    1.3773    5.2143   -2.6066 H   0  0  0  0  0  0  0  0  0  0  0  0
    0.8887    3.5800   -2.3662 H   0  0  0  0  0  0  0  0  0  0  0  0
    3.6305    5.5119   -0.9138 H   0  0  0  0  0  0  0  0  0  0  0  0
    2.8521    6.0172    0.5768 H   0  0  0  0  0  0  0  0  0  0  0  0
    2.2198    6.5807   -0.9637 H   0  0  0  0  0  0  0  0  0  0  0  0
    3.3854    2.4652   -1.1399 H   0  0  0  0  0  0  0  0  0  0  0  0
  1  2  1  0  0  0  0
  1 78  1  0  0  0  0
  1 79  1  0  0  0  0
  1 80  1  0  0  0  0
  2 81  1  0  0  0  0
  2 82  1  0  0  0  0
  3  4  1  0  0  0  0
  3  2  1  0  0  0  0
  3 83  1  1  0  0  0
  4 84  1  0  0  0  0
  4 85  1  0  0  0  0
  4 86  1  0  0  0  0
  5  6  1  0  0  0  0
  5 76  1  0  0  0  0
  5  3  1  0  0  0  0
  5 87  1  1  0  0  0
  6  7  1  0  0  0  0
  6 88  1  0  0  0  0
  7  8  2  0  0  0  0
  7  9  1  0  0  0  0
  9 10  1  0  0  0  0
  9 13  1  0  0  0  0
  9 89  1  6  0  0  0
 10 11  1  0  0  0  0
 10 90  1  0  0  0  0
 10 91  1  0  0  0  0
 11 12  1  0  0  0  0
 11 92  1  0  0  0  0
 11 93  1  0  0  0  0
 12 13  1  0  0  0  0
 12 94  1  0  0  0  0
 12 95  1  0  0  0  0
 13 14  1  0  0  0  0
 14 15  2  0  0  0  0
 14 16  1  0  0  0  0
 16 24  1  0  0  0  0
 16 17  1  0  0  0  0
 16 96  1  1  0  0  0
 17 18  1  0  0  0  0
 17 97  1  0  0  0  0
 17 98  1  0  0  0  0
 18 19  1  0  0  0  0
 18 23  2  0  0  0  0
 19 20  2  0  0  0  0
 19 99  1  0  0  0  0
 20 21  1  0  0  0  0
 20100  1  0  0  0  0
 21 22  2  0  0  0  0
 21101  1  0  0  0  0
 22 23  1  0  0  0  0
 22102  1  0  0  0  0
 23103  1  0  0  0  0
 24 25  1  0  0  0  0
 24 26  1  0  0  0  0
 25104  1  0  0  0  0
 25105  1  0  0  0  0
 25106  1  0  0  0  0
 26 27  2  0  0  0  0
 26 28  1  0  0  0  0
 28 36  1  0  0  0  0
 28 29  1  0  0  0  0
 28107  1  6  0  0  0
 29 30  1  0  0  0  0
 29108  1  0  0  0  0
 29109  1  0  0  0  0
 30 31  1  0  0  0  0
 30 35  2  0  0  0  0
 31 32  2  0  0  0  0
 31110  1  0  0  0  0
 32 33  1  0  0  0  0
 32111  1  0  0  0  0
 33 34  2  0  0  0  0
 33112  1  0  0  0  0
 34 35  1  0  0  0  0
 34113  1  0  0  0  0
 35114  1  0  0  0  0
 36 37  1  0  0  0  0
 36115  1  0  0  0  0
 37 38  2  0  0  0  0
 37 39  1  0  0  0  0
 39 43  1  0  0  0  0
 39 40  1  0  0  0  0
 39116  1  1  0  0  0
 40 41  1  0  0  0  0
 40 42  1  0  0  0  0
 40117  1  0  0  0  0
 41118  1  0  0  0  0
 41119  1  0  0  0  0
 41120  1  0  0  0  0
 42121  1  0  0  0  0
 42122  1  0  0  0  0
 42123  1  0  0  0  0
 43 44  1  0  0  0  0
 43 45  1  0  0  0  0
 44124  1  0  0  0  0
 44125  1  0  0  0  0
 44126  1  0  0  0  0
 45 46  2  0  0  0  0
 45 47  1  0  0  0  0
 47 48  1  0  0  0  0
 47 52  1  0  0  0  0
 47127  1  1  0  0  0
 48 49  1  0  0  0  0
 48 50  1  0  0  0  0
 48128  1  6  0  0  0
 49129  1  0  0  0  0
 49130  1  0  0  0  0
 49131  1  0  0  0  0
 50 51  1  0  0  0  0
 50132  1  0  0  0  0
 50133  1  0  0  0  0
 51134  1  0  0  0  0
 51135  1  0  0  0  0
 51136  1  0  0  0  0
 52 53  1  0  0  0  0
 53 54  2  0  0  0  0
 53 55  1  0  0  0  0
 55 59  1  0  0  0  0
 55 56  1  0  0  0  0
 55137  1  6  0  0  0
 56 57  1  0  0  0  0
 56 58  1  0  0  0  0
 56138  1  0  0  0  0
 57139  1  0  0  0  0
 57140  1  0  0  0  0
 57141  1  0  0  0  0
 58142  1  0  0  0  0
 58143  1  0  0  0  0
 58144  1  0  0  0  0
 59 60  1  0  0  0  0
 59 61  1  0  0  0  0
 60145  1  0  0  0  0
 60146  1  0  0  0  0
 60147  1  0  0  0  0
 61 62  2  0  0  0  0
 61 63  1  0  0  0  0
 63 68  1  0  0  0  0
 63 64  1  0  0  0  0
 63148  1  1  0  0  0
 64 65  1  0  0  0  0
 64149  1  0  0  0  0
 64150  1  0  0  0  0
 65 66  1  0  0  0  0
 65 67  1  0  0  0  0
 65151  1  0  0  0  0
 66152  1  0  0  0  0
 66153  1  0  0  0  0
 66154  1  0  0  0  0
 67155  1  0  0  0  0
 67156  1  0  0  0  0
 67157  1  0  0  0  0
 68 69  1  0  0  0  0
 68158  1  0  0  0  0
 69 70  2  0  0  0  0
 69 71  1  0  0  0  0
 71 75  1  0  0  0  0
 71 72  1  0  0  0  0
 71159  1  1  0  0  0
 72 73  1  0  0  0  0
 72 74  1  0  0  0  0
 72160  1  0  0  0  0
 73161  1  0  0  0  0
 73162  1  0  0  0  0
 73163  1  0  0  0  0
 74164  1  0  0  0  0
 74165  1  0  0  0  0
 74166  1  0  0  0  0
 75 76  1  0  0  0  0
 75167  1  0  0  0  0
 76 77  2  0  0  0  0
M  END
>  <Energy>
1405.73

$$$$