25157546
  -OEChem-03242010103D

 58 61  0     1  0  0  0  0  0999 V2000
   -2.8057   -0.8344   -1.2803 O   0  0  0  0  0  0  0  0  0  0  0  0
    3.4531    1.4785   -1.8418 O   0  0  0  0  0  0  0  0  0  0  0  0
   -0.5339   -2.3308   -0.4938 N   0  0  1  0  0  0  0  0  0  0  0  0
   -0.6042   -2.9603    0.8306 C   0  0  0  0  0  0  0  0  0  0  0  0
    0.8047   -2.5240   -1.0789 C   0  0  0  0  0  0  0  0  0  0  0  0
    0.3337   -2.2359    1.8017 C   0  0  0  0  0  0  0  0  0  0  0  0
    1.9269   -2.1123   -0.1537 C   0  0  0  0  0  0  0  0  0  0  0  0
    1.7112   -2.0180    1.2320 C   0  0  0  0  0  0  0  0  0  0  0  0
   -1.5609   -2.8743   -1.3821 C   0  0  0  0  0  0  0  0  0  0  0  0
   -2.9117   -2.2395   -1.0925 C   0  0  0  0  0  0  0  0  0  0  0  0
    3.2097   -1.8837   -0.6698 C   0  0  0  0  0  0  0  0  0  0  0  0
    2.7708   -1.6607    2.0758 C   0  0  0  0  0  0  0  0  0  0  0  0
    4.2605   -1.5378    0.1794 C   0  0  0  0  0  0  0  0  0  0  0  0
    4.0408   -1.4243    1.5503 C   0  0  0  0  0  0  0  0  0  0  0  0
   -3.6370   -0.0460   -0.5279 C   0  0  0  0  0  0  0  0  0  0  0  0
   -3.1165    0.8988    0.3562 C   0  0  0  0  0  0  0  0  0  0  0  0
   -1.6412    1.0752    0.5030 C   0  0  0  0  0  0  0  0  0  0  0  0
   -1.0871    2.3294   -0.1998 C   0  0  0  0  0  0  0  0  0  0  0  0
    0.4100    2.4713   -0.0706 C   0  0  0  0  0  0  0  0  0  0  0  0
   -5.0179   -0.1974   -0.6536 C   0  0  0  0  0  0  0  0  0  0  0  0
   -3.9770    1.6923    1.1150 C   0  0  0  0  0  0  0  0  0  0  0  0
   -5.8783    0.5960    0.1051 C   0  0  0  0  0  0  0  0  0  0  0  0
   -5.3580    1.5409    0.9895 C   0  0  0  0  0  0  0  0  0  0  0  0
    1.2499    1.9018   -1.0275 C   0  0  0  0  0  0  0  0  0  0  0  0
    0.9535    3.1721    1.0060 C   0  0  0  0  0  0  0  0  0  0  0  0
    2.6334    2.0333   -0.9079 C   0  0  0  0  0  0  0  0  0  0  0  0
    2.3369    3.3036    1.1257 C   0  0  0  0  0  0  0  0  0  0  0  0
    3.1768    2.7343    0.1687 C   0  0  0  0  0  0  0  0  0  0  0  0
    4.8575    1.6518   -1.6586 C   0  0  0  0  0  0  0  0  0  0  0  0
   -0.3346   -4.0238    0.7703 H   0  0  0  0  0  0  0  0  0  0  0  0
   -1.6130   -2.9098    1.2536 H   0  0  0  0  0  0  0  0  0  0  0  0
    0.8752   -1.9195   -1.9921 H   0  0  0  0  0  0  0  0  0  0  0  0
    0.9608   -3.5761   -1.3528 H   0  0  0  0  0  0  0  0  0  0  0  0
    0.4039   -2.8216    2.7261 H   0  0  0  0  0  0  0  0  0  0  0  0
   -0.0882   -1.2563    2.0588 H   0  0  0  0  0  0  0  0  0  0  0  0
   -1.6218   -3.9679   -1.3210 H   0  0  0  0  0  0  0  0  0  0  0  0
   -1.3083   -2.6235   -2.4211 H   0  0  0  0  0  0  0  0  0  0  0  0
   -3.2638   -2.4856   -0.0837 H   0  0  0  0  0  0  0  0  0  0  0  0
   -3.6487   -2.6284   -1.8050 H   0  0  0  0  0  0  0  0  0  0  0  0
    3.3959   -1.9732   -1.7371 H   0  0  0  0  0  0  0  0  0  0  0  0
    2.6109   -1.5639    3.1466 H   0  0  0  0  0  0  0  0  0  0  0  0
    5.2514   -1.3605   -0.2282 H   0  0  0  0  0  0  0  0  0  0  0  0
    4.8589   -1.1509    2.2104 H   0  0  0  0  0  0  0  0  0  0  0  0
   -1.3987    1.1200    1.5740 H   0  0  0  0  0  0  0  0  0  0  0  0
   -1.1020    0.1972    0.1381 H   0  0  0  0  0  0  0  0  0  0  0  0
   -1.5700    3.2314    0.1990 H   0  0  0  0  0  0  0  0  0  0  0  0
   -1.3561    2.3061   -1.2645 H   0  0  0  0  0  0  0  0  0  0  0  0
   -5.4382   -0.9233   -1.3442 H   0  0  0  0  0  0  0  0  0  0  0  0
   -3.5843    2.4317    1.8081 H   0  0  0  0  0  0  0  0  0  0  0  0
   -6.0281    2.1588    1.5800 H   0  0  0  0  0  0  0  0  0  0  0  0
   -6.9536    0.4796    0.0062 H   0  0  0  0  0  0  0  0  0  0  0  0
    0.8323    1.3509   -1.8667 H   0  0  0  0  0  0  0  0  0  0  0  0
    0.3091    3.6182    1.7589 H   0  0  0  0  0  0  0  0  0  0  0  0
    2.7590    3.8493    1.9646 H   0  0  0  0  0  0  0  0  0  0  0  0
    4.2411    2.8762    0.3219 H   0  0  0  0  0  0  0  0  0  0  0  0
    5.3579    1.1258   -2.4782 H   0  0  0  0  0  0  0  0  0  0  0  0
    5.2079    1.1980   -0.7263 H   0  0  0  0  0  0  0  0  0  0  0  0
    5.1416    2.7070   -1.7334 H   0  0  0  0  0  0  0  0  0  0  0  0
  1 10  1  0  0  0  0
  1 15  1  0  0  0  0
  2 26  1  0  0  0  0
  2 29  1  0  0  0  0
  3  4  1  0  0  0  0
  3  5  1  0  0  0  0
  3  9  1  0  0  0  0
  4  6  1  0  0  0  0
  4 30  1  0  0  0  0
  4 31  1  0  0  0  0
  5  7  1  0  0  0  0
  5 32  1  0  0  0  0
  5 33  1  0  0  0  0
  6  8  1  0  0  0  0
  6 34  1  0  0  0  0
  6 35  1  0  0  0  0
  7  8  1  0  0  0  0
  7 11  2  0  0  0  0
  8 12  2  0  0  0  0
  9 10  1  0  0  0  0
  9 36  1  0  0  0  0
  9 37  1  0  0  0  0
 10 38  1  0  0  0  0
 10 39  1  0  0  0  0
 11 13  1  0  0  0  0
 11 40  1  0  0  0  0
 12 14  1  0  0  0  0
 12 41  1  0  0  0  0
 13 14  2  0  0  0  0
 13 42  1  0  0  0  0
 14 43  1  0  0  0  0
 15 16  1  0  0  0  0
 15 20  2  0  0  0  0
 16 17  1  0  0  0  0
 16 21  2  0  0  0  0
 17 18  1  0  0  0  0
 17 44  1  0  0  0  0
 17 45  1  0  0  0  0
 18 19  1  0  0  0  0
 18 46  1  0  0  0  0
 18 47  1  0  0  0  0
 19 24  2  0  0  0  0
 19 25  1  0  0  0  0
 20 22  1  0  0  0  0
 20 48  1  0  0  0  0
 21 23  1  0  0  0  0
 21 49  1  0  0  0  0
 22 23  2  0  0  0  0
 22 51  1  0  0  0  0
 23 50  1  0  0  0  0
 24 26  1  0  0  0  0
 24 52  1  0  0  0  0
 25 27  2  0  0  0  0
 25 53  1  0  0  0  0
 26 28  2  0  0  0  0
 27 28  1  0  0  0  0
 27 54  1  0  0  0  0
 28 55  1  0  0  0  0
 29 56  1  0  0  0  0
 29 57  1  0  0  0  0
 29 58  1  0  0  0  0
M  END
> <PUBCHEM_COMPOUND_CID>
25157546

> <PUBCHEM_CONFORMER_RMSD>
1.6

> <PUBCHEM_CONFORMER_DIVERSEORDER>
1
56
24
59
35
8
53
22
29
47
77
71
48
10
72
32
17
13
49
27
25
38
18
79
20
46
43
78
9
57
50
61
23
58
66
2
41
36
65
60
14
86
69
37
28
92
87
19
40
26
80
21
81
76
67
94
70
62
95
93
73
64
4
44
89
68
82
33
16
55
84
52
74
12
75
63
51
88
31
54
42
45
83
34
15
6
30
11
85
5
90
39
3
91
7

> <PUBCHEM_MMFF94_PARTIAL_CHARGES>
41
1 -0.36
10 0.28
11 -0.15
12 -0.15
13 -0.15
14 -0.15
15 0.08
16 -0.14
17 0.14
18 0.14
19 -0.14
2 -0.36
20 -0.15
21 -0.15
22 -0.15
23 -0.15
24 -0.15
25 -0.15
26 0.08
27 -0.15
28 -0.15
29 0.28
3 -0.81
4 0.27
40 0.15
41 0.15
42 0.15
43 0.15
48 0.15
49 0.15
5 0.41
50 0.15
51 0.15
52 0.15
53 0.15
54 0.15
55 0.15
6 0.14
7 -0.14
8 -0.14
9 0.27

> <PUBCHEM_EFFECTIVE_ROTOR_COUNT>
8.8

> <PUBCHEM_PHARMACOPHORE_FEATURES>
7
1 1 acceptor
1 2 acceptor
1 3 cation
6 15 16 20 21 22 23 rings
6 19 24 25 26 27 28 rings
6 3 4 5 6 7 8 rings
6 7 8 11 12 13 14 rings

> <PUBCHEM_HEAVY_ATOM_COUNT>
29

> <PUBCHEM_ATOM_DEF_STEREO_COUNT>
0

> <PUBCHEM_ATOM_UDEF_STEREO_COUNT>
0

> <PUBCHEM_BOND_DEF_STEREO_COUNT>
0

> <PUBCHEM_BOND_UDEF_STEREO_COUNT>
0

> <PUBCHEM_ISOTOPIC_ATOM_COUNT>
0

> <PUBCHEM_COMPONENT_COUNT>
1

> <PUBCHEM_CACTVS_TAUTO_COUNT>
1

> <PUBCHEM_CONFORMER_ID>
017FDFAA00000001

> <PUBCHEM_MMFF94_ENERGY>
89.0771

> <PUBCHEM_FEATURE_SELFOVERLAP>
35.544

> <PUBCHEM_SHAPE_FINGERPRINT>
1100329 8 18410571781844161194
11399939 17 15683967362556199096
11513181 2 17845366812106090430
11578080 2 14979106058792799780
12156800 1 16266258206724761482
12166972 35 17169276931771666050
12422481 6 18047714288025878992
12553582 1 18267578001360564509
13140716 1 18410007758576086419
14117953 113 18053942849271347261
14394314 77 18412547621646607896
14840074 17 18335987475883958805
14955137 171 18268718220799518723
15001296 14 18410854399329619341
15297060 5 17917716803217241938
15968369 153 18057318590740073539
17492 54 18116173120360417116
17980427 23 18127664167795752890
18336668 15 18187919531154044348
19319366 153 18114183021304640386
20691752 17 17604415396919324934
20764821 26 18041002881243668114
21421861 104 18193855759424536865
23558518 356 17906175409658713437
23559900 14 17561090253702982165
3027735 51 17833831951561921499
3298306 158 18263085560259052961
338550 245 18408038507096106268
35225 105 17469639611186549503
3680242 22 18336265626392536682
392239 28 18195498473520755760
445580 8 18268427940928568683
463206 1 18409730685745785808
474144 1 18409166584514184928
513532 50 17846780724167003716
57527295 17 18192444180743661606
5895379 119 18060421308946895358
6287921 2 17841721711678803467
7064713 232 18059003969891917089

> <PUBCHEM_SHAPE_MULTIPOLES>
580.09
10.02
4.75
1.71
9.12
0.54
-0.18
2.7
0.32
-2.99
-0.3
-1.18
-0.44
-2.34

> <PUBCHEM_SHAPE_SELFOVERLAP>
1243.303

> <PUBCHEM_SHAPE_VOLUME>
321.3

> <PUBCHEM_COORDINATE_TYPE>
2
5
10

$$$$