25157850
  -OEChem-03242010103D

 70 73  0     0  0  0  0  0  0999 V2000
    3.9274    0.2854   -0.8859 O   0  0  0  0  0  0  0  0  0  0  0  0
   -2.0963   -1.4060   -3.2711 O   0  0  0  0  0  0  0  0  0  0  0  0
   -0.2477    3.1007    0.0905 N   0  0  0  0  0  0  0  0  0  0  0  0
   -2.5981    1.6108    0.7348 N   0  0  0  0  0  0  0  0  0  0  0  0
   -4.5116    0.4396    0.0851 N   0  0  0  0  0  0  0  0  0  0  0  0
   -3.7581    0.4181    2.3739 N   0  0  0  0  0  0  0  0  0  0  0  0
   -1.2526    2.8151   -0.9407 C   0  0  0  0  0  0  0  0  0  0  0  0
   -0.9038    3.2756    1.3923 C   0  0  0  0  0  0  0  0  0  0  0  0
    0.5225    4.2934   -0.2600 C   0  0  0  0  0  0  0  0  0  0  0  0
   -2.0285    1.5366   -0.6140 C   0  0  0  0  0  0  0  0  0  0  0  0
   -1.6668    2.0120    1.7967 C   0  0  0  0  0  0  0  0  0  0  0  0
    1.6250    3.9392   -1.2565 C   0  0  0  0  0  0  0  0  0  0  0  0
    2.5762    2.8884   -0.6788 C   0  0  0  0  0  0  0  0  0  0  0  0
    3.7026    2.5576   -1.6625 C   0  0  0  0  0  0  0  0  0  0  0  0
   -3.6730    0.7842    1.0808 C   0  0  0  0  0  0  0  0  0  0  0  0
    4.6443    1.4885   -1.1219 C   0  0  0  0  0  0  0  0  0  0  0  0
    4.3834   -0.5185    0.1269 C   0  0  0  0  0  0  0  0  0  0  0  0
    3.5036   -1.3260    0.8475 C   0  0  0  0  0  0  0  0  0  0  0  0
    2.0443   -1.3354    0.5321 C   0  0  0  0  0  0  0  0  0  0  0  0
   -5.5360   -0.3574    0.4536 C   0  0  0  0  0  0  0  0  0  0  0  0
   -4.8055   -0.3782    2.6723 C   0  0  0  0  0  0  0  0  0  0  0  0
    1.5799   -2.5806   -0.2477 C   0  0  0  0  0  0  0  0  0  0  0  0
   -5.7355   -0.8018    1.7446 C   0  0  0  0  0  0  0  0  0  0  0  0
    5.7440   -0.5223    0.4340 C   0  0  0  0  0  0  0  0  0  0  0  0
    3.9843   -2.1372    1.8754 C   0  0  0  0  0  0  0  0  0  0  0  0
    0.1097   -2.5551   -0.5882 C   0  0  0  0  0  0  0  0  0  0  0  0
    6.2247   -1.3333    1.4620 C   0  0  0  0  0  0  0  0  0  0  0  0
    5.3449   -2.1408    2.1827 C   0  0  0  0  0  0  0  0  0  0  0  0
   -0.3190   -1.9847   -1.7868 C   0  0  0  0  0  0  0  0  0  0  0  0
   -0.8203   -3.1020    0.2958 C   0  0  0  0  0  0  0  0  0  0  0  0
   -1.6777   -1.9616   -2.1014 C   0  0  0  0  0  0  0  0  0  0  0  0
   -2.1790   -3.0788   -0.0186 C   0  0  0  0  0  0  0  0  0  0  0  0
   -2.6077   -2.5087   -1.2173 C   0  0  0  0  0  0  0  0  0  0  0  0
   -3.4995   -1.4168   -3.5298 C   0  0  0  0  0  0  0  0  0  0  0  0
   -0.7812    2.6720   -1.9190 H   0  0  0  0  0  0  0  0  0  0  0  0
   -1.9578    3.6518   -1.0386 H   0  0  0  0  0  0  0  0  0  0  0  0
   -1.5923    4.1311    1.3661 H   0  0  0  0  0  0  0  0  0  0  0  0
   -0.1557    3.4805    2.1679 H   0  0  0  0  0  0  0  0  0  0  0  0
   -0.1150    5.0924   -0.6593 H   0  0  0  0  0  0  0  0  0  0  0  0
    1.0127    4.7072    0.6315 H   0  0  0  0  0  0  0  0  0  0  0  0
   -2.8048    1.4126   -1.3777 H   0  0  0  0  0  0  0  0  0  0  0  0
   -1.3608    0.6699   -0.6736 H   0  0  0  0  0  0  0  0  0  0  0  0
   -0.9658    1.1921    1.9999 H   0  0  0  0  0  0  0  0  0  0  0  0
   -2.1954    2.2427    2.7299 H   0  0  0  0  0  0  0  0  0  0  0  0
    1.2054    3.5886   -2.2059 H   0  0  0  0  0  0  0  0  0  0  0  0
    2.1909    4.8505   -1.4870 H   0  0  0  0  0  0  0  0  0  0  0  0
    2.0242    1.9719   -0.4455 H   0  0  0  0  0  0  0  0  0  0  0  0
    3.0084    3.2546    0.2604 H   0  0  0  0  0  0  0  0  0  0  0  0
    4.2746    3.4635   -1.8938 H   0  0  0  0  0  0  0  0  0  0  0  0
    3.2571    2.1990   -2.5986 H   0  0  0  0  0  0  0  0  0  0  0  0
    5.4325    1.2954   -1.8586 H   0  0  0  0  0  0  0  0  0  0  0  0
    5.0988    1.8857   -0.2048 H   0  0  0  0  0  0  0  0  0  0  0  0
    1.4825   -1.2662    1.4744 H   0  0  0  0  0  0  0  0  0  0  0  0
    1.7570   -0.4326   -0.0206 H   0  0  0  0  0  0  0  0  0  0  0  0
   -6.2138   -0.6395   -0.3450 H   0  0  0  0  0  0  0  0  0  0  0  0
   -4.8790   -0.6770    3.7125 H   0  0  0  0  0  0  0  0  0  0  0  0
    1.8010   -3.4906    0.3256 H   0  0  0  0  0  0  0  0  0  0  0  0
    2.1626   -2.6756   -1.1740 H   0  0  0  0  0  0  0  0  0  0  0  0
   -6.5657   -1.4414    2.0120 H   0  0  0  0  0  0  0  0  0  0  0  0
    6.4692    0.0656   -0.1206 H   0  0  0  0  0  0  0  0  0  0  0  0
    3.3094   -2.7708    2.4449 H   0  0  0  0  0  0  0  0  0  0  0  0
    7.2851   -1.3421    1.6968 H   0  0  0  0  0  0  0  0  0  0  0  0
    5.7197   -2.7736    2.9820 H   0  0  0  0  0  0  0  0  0  0  0  0
    0.4008   -1.5538   -2.4784 H   0  0  0  0  0  0  0  0  0  0  0  0
   -0.4984   -3.5464    1.2338 H   0  0  0  0  0  0  0  0  0  0  0  0
   -2.9028   -3.5028    0.6715 H   0  0  0  0  0  0  0  0  0  0  0  0
   -3.6768   -2.5240   -1.3985 H   0  0  0  0  0  0  0  0  0  0  0  0
   -3.6525   -0.9362   -4.5016 H   0  0  0  0  0  0  0  0  0  0  0  0
   -4.0491   -0.8244   -2.7905 H   0  0  0  0  0  0  0  0  0  0  0  0
   -3.8857   -2.4383   -3.6136 H   0  0  0  0  0  0  0  0  0  0  0  0
  1 16  1  0  0  0  0
  1 17  1  0  0  0  0
  2 31  1  0  0  0  0
  2 34  1  0  0  0  0
  3  7  1  0  0  0  0
  3  8  1  0  0  0  0
  3  9  1  0  0  0  0
  4 10  1  0  0  0  0
  4 11  1  0  0  0  0
  4 15  1  0  0  0  0
  5 15  2  0  0  0  0
  5 20  1  0  0  0  0
  6 15  1  0  0  0  0
  6 21  2  0  0  0  0
  7 10  1  0  0  0  0
  7 35  1  0  0  0  0
  7 36  1  0  0  0  0
  8 11  1  0  0  0  0
  8 37  1  0  0  0  0
  8 38  1  0  0  0  0
  9 12  1  0  0  0  0
  9 39  1  0  0  0  0
  9 40  1  0  0  0  0
 10 41  1  0  0  0  0
 10 42  1  0  0  0  0
 11 43  1  0  0  0  0
 11 44  1  0  0  0  0
 12 13  1  0  0  0  0
 12 45  1  0  0  0  0
 12 46  1  0  0  0  0
 13 14  1  0  0  0  0
 13 47  1  0  0  0  0
 13 48  1  0  0  0  0
 14 16  1  0  0  0  0
 14 49  1  0  0  0  0
 14 50  1  0  0  0  0
 16 51  1  0  0  0  0
 16 52  1  0  0  0  0
 17 18  1  0  0  0  0
 17 24  2  0  0  0  0
 18 19  1  0  0  0  0
 18 25  2  0  0  0  0
 19 22  1  0  0  0  0
 19 53  1  0  0  0  0
 19 54  1  0  0  0  0
 20 23  2  0  0  0  0
 20 55  1  0  0  0  0
 21 23  1  0  0  0  0
 21 56  1  0  0  0  0
 22 26  1  0  0  0  0
 22 57  1  0  0  0  0
 22 58  1  0  0  0  0
 23 59  1  0  0  0  0
 24 27  1  0  0  0  0
 24 60  1  0  0  0  0
 25 28  1  0  0  0  0
 25 61  1  0  0  0  0
 26 29  2  0  0  0  0
 26 30  1  0  0  0  0
 27 28  2  0  0  0  0
 27 62  1  0  0  0  0
 28 63  1  0  0  0  0
 29 31  1  0  0  0  0
 29 64  1  0  0  0  0
 30 32  2  0  0  0  0
 30 65  1  0  0  0  0
 31 33  2  0  0  0  0
 32 33  1  0  0  0  0
 32 66  1  0  0  0  0
 33 67  1  0  0  0  0
 34 68  1  0  0  0  0
 34 69  1  0  0  0  0
 34 70  1  0  0  0  0
M  END
> <PUBCHEM_COMPOUND_CID>
25157850

> <PUBCHEM_CONFORMER_RMSD>
1.6

> <PUBCHEM_CONFORMER_DIVERSEORDER>
1
171
89
77
135
62
84
8
123
107
168
115
175
21
4
105
124
137
119
49
140
110
33
162
53
163
144
85
131
167
152
169
134
129
146
14
151
73
172
88
80
20
68
156
34
58
44
64
22
177
147
30
179
40
130
90
59
28
2
99
61
128
17
114
122
112
132
12
76
166
155
164
72
138
74
142
65
69
108
42
111
104
150
54
154
102
27
16
48
157
43
37
66
148
71
56
55
92
50
141
23
149
18
176
93
57
170
10
75
38
15
36
118
116
45
95
165
103
24
86
160
78
97
29
67
32
26
47
161
109
98
173
3
121
153
41
39
35
117
51
120
143
70
126
91
63
60
158
46
106
5
83
127
94
101
7
19
139
136
100
81
79
174
13
9
133
52
87
11
25
31
96
113
82
6
125
145
159
178

> <PUBCHEM_MMFF94_PARTIAL_CHARGES>
42
1 -0.36
10 0.37
11 0.37
15 0.72
16 0.28
17 0.08
18 -0.14
19 0.14
2 -0.36
20 0.16
21 0.16
22 0.14
23 -0.15
24 -0.15
25 -0.15
26 -0.14
27 -0.15
28 -0.15
29 -0.15
3 -0.81
30 -0.15
31 0.08
32 -0.15
33 -0.15
34 0.28
4 -0.84
5 -0.62
55 0.15
56 0.15
59 0.15
6 -0.62
60 0.15
61 0.15
62 0.15
63 0.15
64 0.15
65 0.15
66 0.15
67 0.15
7 0.27
8 0.27
9 0.27

> <PUBCHEM_EFFECTIVE_ROTOR_COUNT>
13.2

> <PUBCHEM_PHARMACOPHORE_FEATURES>
9
1 1 acceptor
1 2 acceptor
1 3 cation
1 6 acceptor
4 4 5 6 15 cation
6 17 18 24 25 27 28 rings
6 26 29 30 31 32 33 rings
6 3 4 7 8 10 11 rings
6 5 6 15 20 21 23 rings

> <PUBCHEM_HEAVY_ATOM_COUNT>
34

> <PUBCHEM_ATOM_DEF_STEREO_COUNT>
0

> <PUBCHEM_ATOM_UDEF_STEREO_COUNT>
0

> <PUBCHEM_BOND_DEF_STEREO_COUNT>
0

> <PUBCHEM_BOND_UDEF_STEREO_COUNT>
0

> <PUBCHEM_ISOTOPIC_ATOM_COUNT>
0

> <PUBCHEM_COMPONENT_COUNT>
1

> <PUBCHEM_CACTVS_TAUTO_COUNT>
1

> <PUBCHEM_CONFORMER_ID>
017FE0DA00000001

> <PUBCHEM_MMFF94_ENERGY>
99.9828

> <PUBCHEM_FEATURE_SELFOVERLAP>
45.673

> <PUBCHEM_SHAPE_FINGERPRINT>
10675989 125 16901585836637735385
10721379 63 15971267040637633894
10815517 723 18269832026590054934
11135926 11 18044090383758772172
11136256 1 18263914458935865450
12156800 1 16486415533189042669
14117953 113 18194402195412918773
14295343 760 15050881070675472301
14840074 17 18342472447325962209
14950920 106 17748549225174578858
15001296 14 18267593583391534416
15274700 232 16322301994021824714
15297060 5 17130177310107434434
15351339 4 17691970779112420385
15403338 16 17967817128314878651
19319366 153 17898873480568021436
20764821 26 18129366250302127736
21796203 349 18192462772807708024
25019877 29 16702015401036543295
392239 28 18261967284072330499
463206 1 18337116790443198288
469060 322 18340751668621044119
50150288 127 17409410515700541129
5047190 2 18196942286384796383
6287921 2 17556323682022934983
9896288 288 17980763732341765224

> <PUBCHEM_SHAPE_MULTIPOLES>
668.04
12.35
5.28
2.78
5.83
4.28
-1.03
-4.76
6.6
1.78
-1.08
-2.74
-1.13
-4.11

> <PUBCHEM_SHAPE_SELFOVERLAP>
1402.766

> <PUBCHEM_SHAPE_VOLUME>
375.1

> <PUBCHEM_COORDINATE_TYPE>
2
5
10

$$$$