25157549
  -OEChem-03242010103D

 67 70  0     1  0  0  0  0  0999 V2000
    2.0470   -1.6873    0.1428 O   0  0  0  0  0  0  0  0  0  0  0  0
    2.7364    3.1010    2.2346 O   0  0  0  0  0  0  0  0  0  0  0  0
   -3.0651   -1.8265    0.5282 N   0  0  1  0  0  0  0  0  0  0  0  0
   -3.5688   -2.1816   -0.8042 C   0  0  0  0  0  0  0  0  0  0  0  0
   -3.9726   -0.8626    1.1752 C   0  0  0  0  0  0  0  0  0  0  0  0
   -2.9123   -3.0194    1.3603 C   0  0  0  0  0  0  0  0  0  0  0  0
   -3.5237   -0.9555   -1.7217 C   0  0  0  0  0  0  0  0  0  0  0  0
   -4.2887    0.3355    0.3093 C   0  0  0  0  0  0  0  0  0  0  0  0
   -4.1153    0.2746   -1.0841 C   0  0  0  0  0  0  0  0  0  0  0  0
   -1.6616   -3.7954    0.9508 C   0  0  0  0  0  0  0  0  0  0  0  0
   -0.4006   -2.9463    1.1290 C   0  0  0  0  0  0  0  0  0  0  0  0
    0.8508   -3.7098    0.6858 C   0  0  0  0  0  0  0  0  0  0  0  0
   -4.8188    1.4961    0.8890 C   0  0  0  0  0  0  0  0  0  0  0  0
   -4.4390    1.3866   -1.8722 C   0  0  0  0  0  0  0  0  0  0  0  0
    2.1234   -2.8957    0.8852 C   0  0  0  0  0  0  0  0  0  0  0  0
   -5.1470    2.5947    0.0950 C   0  0  0  0  0  0  0  0  0  0  0  0
   -4.9552    2.5408   -1.2838 C   0  0  0  0  0  0  0  0  0  0  0  0
    3.2293   -1.1673   -0.3171 C   0  0  0  0  0  0  0  0  0  0  0  0
    3.2702   -0.4216   -1.4953 C   0  0  0  0  0  0  0  0  0  0  0  0
    2.0270   -0.1707   -2.2828 C   0  0  0  0  0  0  0  0  0  0  0  0
    1.4617    1.2540   -2.1241 C   0  0  0  0  0  0  0  0  0  0  0  0
    4.4001   -1.3918    0.4071 C   0  0  0  0  0  0  0  0  0  0  0  0
    1.1319    1.6072   -0.6942 C   0  0  0  0  0  0  0  0  0  0  0  0
    4.4820    0.0992   -1.9492 C   0  0  0  0  0  0  0  0  0  0  0  0
    5.6118   -0.8709   -0.0469 C   0  0  0  0  0  0  0  0  0  0  0  0
    5.6528   -0.1254   -1.2252 C   0  0  0  0  0  0  0  0  0  0  0  0
    2.0989    2.1977    0.1195 C   0  0  0  0  0  0  0  0  0  0  0  0
   -0.1402    1.3432   -0.1866 C   0  0  0  0  0  0  0  0  0  0  0  0
    1.7935    2.5242    1.4407 C   0  0  0  0  0  0  0  0  0  0  0  0
   -0.4455    1.6697    1.1346 C   0  0  0  0  0  0  0  0  0  0  0  0
    0.5213    2.2602    1.9483 C   0  0  0  0  0  0  0  0  0  0  0  0
    4.0163    3.3430    1.6520 C   0  0  0  0  0  0  0  0  0  0  0  0
   -4.5963   -2.5656   -0.7410 H   0  0  0  0  0  0  0  0  0  0  0  0
   -2.9667   -2.9607   -1.2818 H   0  0  0  0  0  0  0  0  0  0  0  0
   -3.4980   -0.5042    2.0974 H   0  0  0  0  0  0  0  0  0  0  0  0
   -4.9221   -1.3442    1.4453 H   0  0  0  0  0  0  0  0  0  0  0  0
   -2.7956   -2.7342    2.4143 H   0  0  0  0  0  0  0  0  0  0  0  0
   -3.7967   -3.6669    1.3066 H   0  0  0  0  0  0  0  0  0  0  0  0
   -4.0632   -1.1882   -2.6477 H   0  0  0  0  0  0  0  0  0  0  0  0
   -2.4821   -0.7362   -1.9882 H   0  0  0  0  0  0  0  0  0  0  0  0
   -1.5837   -4.6844    1.5895 H   0  0  0  0  0  0  0  0  0  0  0  0
   -1.7292   -4.1682   -0.0763 H   0  0  0  0  0  0  0  0  0  0  0  0
   -0.2987   -2.6534    2.1811 H   0  0  0  0  0  0  0  0  0  0  0  0
   -0.4784   -2.0238    0.5428 H   0  0  0  0  0  0  0  0  0  0  0  0
    0.7498   -3.9614   -0.3772 H   0  0  0  0  0  0  0  0  0  0  0  0
    0.9317   -4.6501    1.2431 H   0  0  0  0  0  0  0  0  0  0  0  0
   -4.9778    1.5495    1.9631 H   0  0  0  0  0  0  0  0  0  0  0  0
   -4.2894    1.3586   -2.9485 H   0  0  0  0  0  0  0  0  0  0  0  0
    2.2520   -2.6585    1.9477 H   0  0  0  0  0  0  0  0  0  0  0  0
    2.9578   -3.5269    0.5530 H   0  0  0  0  0  0  0  0  0  0  0  0
   -5.5528    3.4925    0.5521 H   0  0  0  0  0  0  0  0  0  0  0  0
   -5.2073    3.3983   -1.9010 H   0  0  0  0  0  0  0  0  0  0  0  0
    2.2390   -0.3481   -3.3457 H   0  0  0  0  0  0  0  0  0  0  0  0
    1.2475   -0.8994   -2.0269 H   0  0  0  0  0  0  0  0  0  0  0  0
    0.5601    1.3533   -2.7421 H   0  0  0  0  0  0  0  0  0  0  0  0
    2.1727    1.9892   -2.5236 H   0  0  0  0  0  0  0  0  0  0  0  0
    4.4104   -1.9390    1.3449 H   0  0  0  0  0  0  0  0  0  0  0  0
    4.5275    0.6824   -2.8652 H   0  0  0  0  0  0  0  0  0  0  0  0
    6.5225   -1.0389    0.5205 H   0  0  0  0  0  0  0  0  0  0  0  0
    6.5959    0.2820   -1.5774 H   0  0  0  0  0  0  0  0  0  0  0  0
    3.0681    2.3921   -0.3265 H   0  0  0  0  0  0  0  0  0  0  0  0
   -0.8998    0.8811   -0.8102 H   0  0  0  0  0  0  0  0  0  0  0  0
   -1.4348    1.4628    1.5311 H   0  0  0  0  0  0  0  0  0  0  0  0
    0.2777    2.5117    2.9769 H   0  0  0  0  0  0  0  0  0  0  0  0
    4.6415    3.8017    2.4250 H   0  0  0  0  0  0  0  0  0  0  0  0
    3.9536    4.0592    0.8257 H   0  0  0  0  0  0  0  0  0  0  0  0
    4.5075    2.4095    1.3568 H   0  0  0  0  0  0  0  0  0  0  0  0
  1 15  1  0  0  0  0
  1 18  1  0  0  0  0
  2 29  1  0  0  0  0
  2 32  1  0  0  0  0
  3  4  1  0  0  0  0
  3  5  1  0  0  0  0
  3  6  1  0  0  0  0
  4  7  1  0  0  0  0
  4 33  1  0  0  0  0
  4 34  1  0  0  0  0
  5  8  1  0  0  0  0
  5 35  1  0  0  0  0
  5 36  1  0  0  0  0
  6 10  1  0  0  0  0
  6 37  1  0  0  0  0
  6 38  1  0  0  0  0
  7  9  1  0  0  0  0
  7 39  1  0  0  0  0
  7 40  1  0  0  0  0
  8  9  1  0  0  0  0
  8 13  2  0  0  0  0
  9 14  2  0  0  0  0
 10 11  1  0  0  0  0
 10 41  1  0  0  0  0
 10 42  1  0  0  0  0
 11 12  1  0  0  0  0
 11 43  1  0  0  0  0
 11 44  1  0  0  0  0
 12 15  1  0  0  0  0
 12 45  1  0  0  0  0
 12 46  1  0  0  0  0
 13 16  1  0  0  0  0
 13 47  1  0  0  0  0
 14 17  1  0  0  0  0
 14 48  1  0  0  0  0
 15 49  1  0  0  0  0
 15 50  1  0  0  0  0
 16 17  2  0  0  0  0
 16 51  1  0  0  0  0
 17 52  1  0  0  0  0
 18 19  1  0  0  0  0
 18 22  2  0  0  0  0
 19 20  1  0  0  0  0
 19 24  2  0  0  0  0
 20 21  1  0  0  0  0
 20 53  1  0  0  0  0
 20 54  1  0  0  0  0
 21 23  1  0  0  0  0
 21 55  1  0  0  0  0
 21 56  1  0  0  0  0
 22 25  1  0  0  0  0
 22 57  1  0  0  0  0
 23 27  2  0  0  0  0
 23 28  1  0  0  0  0
 24 26  1  0  0  0  0
 24 58  1  0  0  0  0
 25 26  2  0  0  0  0
 25 59  1  0  0  0  0
 26 60  1  0  0  0  0
 27 29  1  0  0  0  0
 27 61  1  0  0  0  0
 28 30  2  0  0  0  0
 28 62  1  0  0  0  0
 29 31  2  0  0  0  0
 30 31  1  0  0  0  0
 30 63  1  0  0  0  0
 31 64  1  0  0  0  0
 32 65  1  0  0  0  0
 32 66  1  0  0  0  0
 32 67  1  0  0  0  0
M  END
> <PUBCHEM_COMPOUND_CID>
25157549

> <PUBCHEM_CONFORMER_RMSD>
1.8

> <PUBCHEM_CONFORMER_DIVERSEORDER>
2
7
13
19
76
53
95
56
52
36
67
12
87
29
89
94
26
79
64
47
73
84
9
32
85
80
92
66
4
55
70
31
96
41
16
97
21
72
14
34
60
78
63
39
59
45
77
23
27
48
1
6
68
71
44
33
58
61
57
74
65
51
17
20
5
25
50
11
69
43
22
35
28
54
46
40
30
75
62
81
90
88
38
93
15
3
8
82
18
49
91
42
10
37
83
86
24

> <PUBCHEM_MMFF94_PARTIAL_CHARGES>
41
1 -0.36
13 -0.15
14 -0.15
15 0.28
16 -0.15
17 -0.15
18 0.08
19 -0.14
2 -0.36
20 0.14
21 0.14
22 -0.15
23 -0.14
24 -0.15
25 -0.15
26 -0.15
27 -0.15
28 -0.15
29 0.08
3 -0.81
30 -0.15
31 -0.15
32 0.28
4 0.27
47 0.15
48 0.15
5 0.41
51 0.15
52 0.15
57 0.15
58 0.15
59 0.15
6 0.27
60 0.15
61 0.15
62 0.15
63 0.15
64 0.15
7 0.14
8 -0.14
9 -0.14

> <PUBCHEM_EFFECTIVE_ROTOR_COUNT>
11.8

> <PUBCHEM_PHARMACOPHORE_FEATURES>
7
1 1 acceptor
1 2 acceptor
1 3 cation
6 18 19 22 24 25 26 rings
6 23 27 28 29 30 31 rings
6 3 4 5 7 8 9 rings
6 8 9 13 14 16 17 rings

> <PUBCHEM_HEAVY_ATOM_COUNT>
32

> <PUBCHEM_ATOM_DEF_STEREO_COUNT>
0

> <PUBCHEM_ATOM_UDEF_STEREO_COUNT>
0

> <PUBCHEM_BOND_DEF_STEREO_COUNT>
0

> <PUBCHEM_BOND_UDEF_STEREO_COUNT>
0

> <PUBCHEM_ISOTOPIC_ATOM_COUNT>
0

> <PUBCHEM_COMPONENT_COUNT>
1

> <PUBCHEM_CACTVS_TAUTO_COUNT>
1

> <PUBCHEM_CONFORMER_ID>
017FDFAD00000002

> <PUBCHEM_MMFF94_ENERGY>
88.2505

> <PUBCHEM_FEATURE_SELFOVERLAP>
35.544

> <PUBCHEM_SHAPE_FINGERPRINT>
10439779 11 18335969918052949994
10675989 125 17540813893771568229
10764073 3 18192683783972796872
11399939 17 15896173063635262512
11578080 2 18263091075139784780
12107698 1 18201996673050970095
12156800 1 14568391990114776546
12422481 6 17313376765212675830
12788726 201 17914900820551843857
144659 178 18336548329994280876
14725015 67 18193002727728343707
14910302 57 18264491865974941163
14932702 115 18336281101607934732
15145343 34 18196360439393723153
15406563 228 18041293140156824252
17809404 112 17489038080177052567
18608769 82 18187937218119987627
19319366 153 18118401753020891467
20764821 26 18263370337949212475
22393880 68 18413105086962799559
23559900 14 18411980282268102688
350125 39 18261399949358057283
4015057 19 17703780432207908457
463206 1 18265617589123668378
508706 21 18262516034631573835
550186 7 17474663331306662144
7226269 152 18341619174362234852

> <PUBCHEM_SHAPE_MULTIPOLES>
641.83
12.09
4.79
2.19
2.1
2.09
-0.39
-3.25
-3.22
0.83
3.01
-0.73
-1.08
2.06

> <PUBCHEM_SHAPE_SELFOVERLAP>
1359.803

> <PUBCHEM_SHAPE_VOLUME>
358.9

> <PUBCHEM_COORDINATE_TYPE>
2
5
10

$$$$