25156684
  -OEChem-03242010103D

 64 67  0     1  0  0  0  0  0999 V2000
   -3.1057    1.7880   -0.2688 O   0  0  0  0  0  0  0  0  0  0  0  0
    2.2862   -1.8023    1.4267 O   0  0  0  0  0  0  0  0  0  0  0  0
    1.9910    2.2406    0.6703 N   0  0  2  0  0  0  0  0  0  0  0  0
    3.2175    2.8464    1.2030 C   0  0  0  0  0  0  0  0  0  0  0  0
    2.1674    1.9012   -0.7528 C   0  0  0  0  0  0  0  0  0  0  0  0
    4.3496    1.8141    1.2050 C   0  0  0  0  0  0  0  0  0  0  0  0
    0.8508    3.1402    0.8417 C   0  0  0  0  0  0  0  0  0  0  0  0
    3.4113    1.0863   -1.0237 C   0  0  0  0  0  0  0  0  0  0  0  0
    4.4751    1.0810   -0.1052 C   0  0  0  0  0  0  0  0  0  0  0  0
   -0.4579    2.3538    0.7923 C   0  0  0  0  0  0  0  0  0  0  0  0
   -1.6636    3.2769    0.9607 C   0  0  0  0  0  0  0  0  0  0  0  0
    3.5356    0.3806   -2.2282 C   0  0  0  0  0  0  0  0  0  0  0  0
    5.6307    0.3409   -0.3870 C   0  0  0  0  0  0  0  0  0  0  0  0
   -2.9726    2.4982    0.9552 C   0  0  0  0  0  0  0  0  0  0  0  0
    4.6941   -0.3454   -2.5041 C   0  0  0  0  0  0  0  0  0  0  0  0
    5.7394   -0.3671   -1.5835 C   0  0  0  0  0  0  0  0  0  0  0  0
   -4.2494    1.0510   -0.4345 C   0  0  0  0  0  0  0  0  0  0  0  0
   -4.1864   -0.3277   -0.6367 C   0  0  0  0  0  0  0  0  0  0  0  0
   -2.8715   -1.0338   -0.6757 C   0  0  0  0  0  0  0  0  0  0  0  0
   -2.5470   -1.8250    0.6060 C   0  0  0  0  0  0  0  0  0  0  0  0
   -5.4862    1.6950   -0.4000 C   0  0  0  0  0  0  0  0  0  0  0  0
   -1.1989   -2.5022    0.5617 C   0  0  0  0  0  0  0  0  0  0  0  0
   -5.3602   -1.0623   -0.8045 C   0  0  0  0  0  0  0  0  0  0  0  0
   -6.6599    0.9604   -0.5679 C   0  0  0  0  0  0  0  0  0  0  0  0
   -6.5971   -0.4183   -0.7702 C   0  0  0  0  0  0  0  0  0  0  0  0
   -0.0653   -1.8307    1.0198 C   0  0  0  0  0  0  0  0  0  0  0  0
   -1.0866   -3.7999    0.0627 C   0  0  0  0  0  0  0  0  0  0  0  0
    1.1803   -2.4569    0.9791 C   0  0  0  0  0  0  0  0  0  0  0  0
    0.1591   -4.4262    0.0219 C   0  0  0  0  0  0  0  0  0  0  0  0
    1.2925   -3.7547    0.4800 C   0  0  0  0  0  0  0  0  0  0  0  0
    3.5279   -2.5019    1.3567 C   0  0  0  0  0  0  0  0  0  0  0  0
    3.0704    3.1823    2.2369 H   0  0  0  0  0  0  0  0  0  0  0  0
    3.5051    3.7271    0.6129 H   0  0  0  0  0  0  0  0  0  0  0  0
    2.2249    2.8087   -1.3689 H   0  0  0  0  0  0  0  0  0  0  0  0
    1.3104    1.3114   -1.0962 H   0  0  0  0  0  0  0  0  0  0  0  0
    4.1664    1.0723    1.9930 H   0  0  0  0  0  0  0  0  0  0  0  0
    5.2920    2.3239    1.4377 H   0  0  0  0  0  0  0  0  0  0  0  0
    0.8986    3.6198    1.8284 H   0  0  0  0  0  0  0  0  0  0  0  0
    0.8554    3.9512    0.1022 H   0  0  0  0  0  0  0  0  0  0  0  0
   -0.4640    1.6007    1.5899 H   0  0  0  0  0  0  0  0  0  0  0  0
   -0.5523    1.8180   -0.1577 H   0  0  0  0  0  0  0  0  0  0  0  0
   -1.6721    4.0011    0.1368 H   0  0  0  0  0  0  0  0  0  0  0  0
   -1.5810    3.8396    1.8976 H   0  0  0  0  0  0  0  0  0  0  0  0
    2.7296    0.3931   -2.9574 H   0  0  0  0  0  0  0  0  0  0  0  0
    6.4510    0.3119    0.3256 H   0  0  0  0  0  0  0  0  0  0  0  0
   -2.9923    1.7900    1.7927 H   0  0  0  0  0  0  0  0  0  0  0  0
   -3.7951    3.2104    1.0846 H   0  0  0  0  0  0  0  0  0  0  0  0
    4.7811   -0.8940   -3.4375 H   0  0  0  0  0  0  0  0  0  0  0  0
    6.6393   -0.9365   -1.7971 H   0  0  0  0  0  0  0  0  0  0  0  0
   -2.8685   -1.7187   -1.5354 H   0  0  0  0  0  0  0  0  0  0  0  0
   -2.0562   -0.3304   -0.8873 H   0  0  0  0  0  0  0  0  0  0  0  0
   -3.3231   -2.5790    0.7927 H   0  0  0  0  0  0  0  0  0  0  0  0
   -2.5839   -1.1530    1.4743 H   0  0  0  0  0  0  0  0  0  0  0  0
   -5.5565    2.7703   -0.2631 H   0  0  0  0  0  0  0  0  0  0  0  0
   -5.3250   -2.1368   -0.9638 H   0  0  0  0  0  0  0  0  0  0  0  0
   -7.6229    1.4623   -0.5456 H   0  0  0  0  0  0  0  0  0  0  0  0
   -7.5110   -0.9900   -0.9021 H   0  0  0  0  0  0  0  0  0  0  0  0
   -0.1458   -0.8200    1.4099 H   0  0  0  0  0  0  0  0  0  0  0  0
   -1.9623   -4.3323   -0.2989 H   0  0  0  0  0  0  0  0  0  0  0  0
    0.2455   -5.4364   -0.3677 H   0  0  0  0  0  0  0  0  0  0  0  0
    2.2284   -4.2993    0.4183 H   0  0  0  0  0  0  0  0  0  0  0  0
    4.2972   -1.8361    1.7608 H   0  0  0  0  0  0  0  0  0  0  0  0
    3.8065   -2.7228    0.3208 H   0  0  0  0  0  0  0  0  0  0  0  0
    3.5211   -3.3987    1.9853 H   0  0  0  0  0  0  0  0  0  0  0  0
  1 14  1  0  0  0  0
  1 17  1  0  0  0  0
  2 28  1  0  0  0  0
  2 31  1  0  0  0  0
  3  4  1  0  0  0  0
  3  5  1  0  0  0  0
  3  7  1  0  0  0  0
  4  6  1  0  0  0  0
  4 32  1  0  0  0  0
  4 33  1  0  0  0  0
  5  8  1  0  0  0  0
  5 34  1  0  0  0  0
  5 35  1  0  0  0  0
  6  9  1  0  0  0  0
  6 36  1  0  0  0  0
  6 37  1  0  0  0  0
  7 10  1  0  0  0  0
  7 38  1  0  0  0  0
  7 39  1  0  0  0  0
  8  9  1  0  0  0  0
  8 12  2  0  0  0  0
  9 13  2  0  0  0  0
 10 11  1  0  0  0  0
 10 40  1  0  0  0  0
 10 41  1  0  0  0  0
 11 14  1  0  0  0  0
 11 42  1  0  0  0  0
 11 43  1  0  0  0  0
 12 15  1  0  0  0  0
 12 44  1  0  0  0  0
 13 16  1  0  0  0  0
 13 45  1  0  0  0  0
 14 46  1  0  0  0  0
 14 47  1  0  0  0  0
 15 16  2  0  0  0  0
 15 48  1  0  0  0  0
 16 49  1  0  0  0  0
 17 18  1  0  0  0  0
 17 21  2  0  0  0  0
 18 19  1  0  0  0  0
 18 23  2  0  0  0  0
 19 20  1  0  0  0  0
 19 50  1  0  0  0  0
 19 51  1  0  0  0  0
 20 22  1  0  0  0  0
 20 52  1  0  0  0  0
 20 53  1  0  0  0  0
 21 24  1  0  0  0  0
 21 54  1  0  0  0  0
 22 26  2  0  0  0  0
 22 27  1  0  0  0  0
 23 25  1  0  0  0  0
 23 55  1  0  0  0  0
 24 25  2  0  0  0  0
 24 56  1  0  0  0  0
 25 57  1  0  0  0  0
 26 28  1  0  0  0  0
 26 58  1  0  0  0  0
 27 29  2  0  0  0  0
 27 59  1  0  0  0  0
 28 30  2  0  0  0  0
 29 30  1  0  0  0  0
 29 60  1  0  0  0  0
 30 61  1  0  0  0  0
 31 62  1  0  0  0  0
 31 63  1  0  0  0  0
 31 64  1  0  0  0  0
M  END
> <PUBCHEM_COMPOUND_CID>
25156684

> <PUBCHEM_CONFORMER_RMSD>
1.6

> <PUBCHEM_CONFORMER_DIVERSEORDER>
1
139
136
43
120
85
98
31
107
126
7
46
87
148
104
142
22
58
63
75
109
33
11
59
132
71
88
149
16
81
57
133
105
32
17
100
117
39
29
91
135
48
106
28
112
89
62
84
129
42
9
76
130
144
93
97
27
150
121
26
101
70
141
96
77
14
125
38
35
37
73
103
138
155
53
80
50
49
114
19
153
113
116
86
118
18
72
79
156
45
56
3
47
119
90
64
102
67
99
110
66
143
94
24
134
54
82
124
6
40
21
108
23
5
36
55
69
92
44
68
137
157
20
52
51
4
15
2
154
60
115
25
151
74
83
13
65
61
145
122
8
127
152
30
95
111
41
140
147
146
78
10
131
123
34
12
128

> <PUBCHEM_MMFF94_PARTIAL_CHARGES>
41
1 -0.36
12 -0.15
13 -0.15
14 0.28
15 -0.15
16 -0.15
17 0.08
18 -0.14
19 0.14
2 -0.36
20 0.14
21 -0.15
22 -0.14
23 -0.15
24 -0.15
25 -0.15
26 -0.15
27 -0.15
28 0.08
29 -0.15
3 -0.81
30 -0.15
31 0.28
4 0.27
44 0.15
45 0.15
48 0.15
49 0.15
5 0.41
54 0.15
55 0.15
56 0.15
57 0.15
58 0.15
59 0.15
6 0.14
60 0.15
61 0.15
7 0.27
8 -0.14
9 -0.14

> <PUBCHEM_EFFECTIVE_ROTOR_COUNT>
10.8

> <PUBCHEM_PHARMACOPHORE_FEATURES>
7
1 1 acceptor
1 2 acceptor
1 3 cation
6 17 18 21 23 24 25 rings
6 22 26 27 28 29 30 rings
6 3 4 5 6 8 9 rings
6 8 9 12 13 15 16 rings

> <PUBCHEM_HEAVY_ATOM_COUNT>
31

> <PUBCHEM_ATOM_DEF_STEREO_COUNT>
0

> <PUBCHEM_ATOM_UDEF_STEREO_COUNT>
0

> <PUBCHEM_BOND_DEF_STEREO_COUNT>
0

> <PUBCHEM_BOND_UDEF_STEREO_COUNT>
0

> <PUBCHEM_ISOTOPIC_ATOM_COUNT>
0

> <PUBCHEM_COMPONENT_COUNT>
1

> <PUBCHEM_CACTVS_TAUTO_COUNT>
1

> <PUBCHEM_CONFORMER_ID>
017FDC4C00000001

> <PUBCHEM_MMFF94_ENERGY>
88.6287

> <PUBCHEM_FEATURE_SELFOVERLAP>
35.544

> <PUBCHEM_SHAPE_FINGERPRINT>
10190108 129 18267327412317184761
10483366 6 18411142399005269778
108634 29 18270967954976475612
11513181 2 18056484936997446806
11828532 37 18194404626628360015
13165054 235 18120356684262275671
13402501 40 18272372000801633845
13617811 41 18113333124913468405
14114211 68 18115327595438889063
14394314 77 18412262801217499497
14931854 50 18410579448355315533
15001296 14 18334849558500425136
15082195 135 18195226851283878831
15160629 131 17774450365367160935
15274700 259 17679841749933342005
15322534 239 18412269432208166879
15351339 4 18339077090546364370
16067689 134 17912090448058857041
17627616 140 18193000313707919763
21781051 124 17968950828557583531
22393880 68 18342174414971335133
23572383 38 18058730354732062800
3298306 158 18409165545506710471
3383291 50 18340206409896430091
354706 35 17402317669342832917
437795 70 18129962117027324124
474144 1 18189048703161484274
508706 21 18192147320360542135
513532 50 18059848489723084762
5309563 4 16104728042739091567
59755656 215 18410292506096181141

> <PUBCHEM_SHAPE_MULTIPOLES>
621.25
14.06
5.23
1.63
9.91
3.28
-0.62
-4.84
-6.73
-0.49
2.43
-2.28
-0.07
-0.17

> <PUBCHEM_SHAPE_SELFOVERLAP>
1318.703

> <PUBCHEM_SHAPE_VOLUME>
347.1

> <PUBCHEM_COORDINATE_TYPE>
2
5
10

$$$$