3034694
  -OEChem-03242010103D

 40 42  0     1  0  0  0  0  0999 V2000
   -0.6708    0.6936    0.2137 O   0  0  0  0  0  0  0  0  0  0  0  0
    3.1753   -2.2738    0.2593 O   0  0  0  0  0  0  0  0  0  0  0  0
    0.7294   -3.1584    0.3919 O   0  0  0  0  0  0  0  0  0  0  0  0
    3.7549    2.4275    0.1488 O   0  0  0  0  0  0  0  0  0  0  0  0
   -1.4506   -0.3954   -0.3048 C   0  0  1  0  0  0  0  0  0  0  0  0
   -1.1640   -1.6868    0.4590 C   0  0  0  0  0  0  0  0  0  0  0  0
    1.2146   -0.8526    0.2434 C   0  0  0  0  0  0  0  0  0  0  0  0
    0.6759    0.4368    0.2064 C   0  0  0  0  0  0  0  0  0  0  0  0
    0.3029   -2.0108    0.3445 C   0  0  0  0  0  0  0  0  0  0  0  0
   -2.9150   -0.0211   -0.2145 C   0  0  0  0  0  0  0  0  0  0  0  0
    1.5258    1.5436    0.1889 C   0  0  0  0  0  0  0  0  0  0  0  0
    2.5991   -1.0397    0.2290 C   0  0  0  0  0  0  0  0  0  0  0  0
    2.9088    1.3591    0.1760 C   0  0  0  0  0  0  0  0  0  0  0  0
    3.4437    0.0704    0.1911 C   0  0  0  0  0  0  0  0  0  0  0  0
   -3.8144   -0.4892   -1.1720 C   0  0  0  0  0  0  0  0  0  0  0  0
   -3.3636    0.7921    0.8261 C   0  0  0  0  0  0  0  0  0  0  0  0
    0.9639    2.9297    0.1711 C   0  0  0  0  0  0  0  0  0  0  0  0
   -5.1633   -0.1441   -1.0889 C   0  0  0  0  0  0  0  0  0  0  0  0
   -4.7127    1.1369    0.9093 C   0  0  0  0  0  0  0  0  0  0  0  0
   -5.6126    0.6688   -0.0481 C   0  0  0  0  0  0  0  0  0  0  0  0
    3.4307   -2.9009   -0.9959 C   0  0  0  0  0  0  0  0  0  0  0  0
    4.1421    2.9141   -1.1343 C   0  0  0  0  0  0  0  0  0  0  0  0
   -1.1886   -0.5075   -1.3675 H   0  0  0  0  0  0  0  0  0  0  0  0
   -1.7432   -2.5172    0.0404 H   0  0  0  0  0  0  0  0  0  0  0  0
   -1.4012   -1.5908    1.5251 H   0  0  0  0  0  0  0  0  0  0  0  0
    4.5224   -0.0675    0.1827 H   0  0  0  0  0  0  0  0  0  0  0  0
   -3.4769   -1.1248   -1.9863 H   0  0  0  0  0  0  0  0  0  0  0  0
   -2.6860    1.1594    1.5918 H   0  0  0  0  0  0  0  0  0  0  0  0
    0.0699    3.0048    0.7998 H   0  0  0  0  0  0  0  0  0  0  0  0
    1.6675    3.6695    0.5662 H   0  0  0  0  0  0  0  0  0  0  0  0
    0.6997    3.2135   -0.8525 H   0  0  0  0  0  0  0  0  0  0  0  0
   -5.8642   -0.5090   -1.8340 H   0  0  0  0  0  0  0  0  0  0  0  0
   -5.0632    1.7674    1.7212 H   0  0  0  0  0  0  0  0  0  0  0  0
   -6.6631    0.9365    0.0172 H   0  0  0  0  0  0  0  0  0  0  0  0
    3.7123   -3.9407   -0.8088 H   0  0  0  0  0  0  0  0  0  0  0  0
    2.5440   -2.8874   -1.6378 H   0  0  0  0  0  0  0  0  0  0  0  0
    4.2616   -2.3990   -1.5015 H   0  0  0  0  0  0  0  0  0  0  0  0
    3.2671    3.2144   -1.7191 H   0  0  0  0  0  0  0  0  0  0  0  0
    4.7104    2.1510   -1.6757 H   0  0  0  0  0  0  0  0  0  0  0  0
    4.7820    3.7888   -0.9897 H   0  0  0  0  0  0  0  0  0  0  0  0
  1  5  1  0  0  0  0
  1  8  1  0  0  0  0
  2 12  1  0  0  0  0
  2 21  1  0  0  0  0
  3  9  2  0  0  0  0
  4 13  1  0  0  0  0
  4 22  1  0  0  0  0
  5  6  1  0  0  0  0
  5 10  1  0  0  0  0
  5 23  1  0  0  0  0
  6  9  1  0  0  0  0
  6 24  1  0  0  0  0
  6 25  1  0  0  0  0
  7  8  1  0  0  0  0
  7  9  1  0  0  0  0
  7 12  2  0  0  0  0
  8 11  2  0  0  0  0
 10 15  2  0  0  0  0
 10 16  1  0  0  0  0
 11 13  1  0  0  0  0
 11 17  1  0  0  0  0
 12 14  1  0  0  0  0
 13 14  2  0  0  0  0
 14 26  1  0  0  0  0
 15 18  1  0  0  0  0
 15 27  1  0  0  0  0
 16 19  2  0  0  0  0
 16 28  1  0  0  0  0
 17 29  1  0  0  0  0
 17 30  1  0  0  0  0
 17 31  1  0  0  0  0
 18 20  2  0  0  0  0
 18 32  1  0  0  0  0
 19 20  1  0  0  0  0
 19 33  1  0  0  0  0
 20 34  1  0  0  0  0
 21 35  1  0  0  0  0
 21 36  1  0  0  0  0
 21 37  1  0  0  0  0
 22 38  1  0  0  0  0
 22 39  1  0  0  0  0
 22 40  1  0  0  0  0
M  END
> <PUBCHEM_COMPOUND_CID>
3034694

> <PUBCHEM_CONFORMER_RMSD>
0.6

> <PUBCHEM_CONFORMER_DIVERSEORDER>
1
8
12
9
5
7
4
10
11
2
3
6

> <PUBCHEM_MMFF94_PARTIAL_CHARGES>
28
1 -0.36
10 -0.14
11 -0.14
12 0.08
13 0.08
14 -0.15
15 -0.15
16 -0.15
17 0.14
18 -0.15
19 -0.15
2 -0.36
20 -0.15
21 0.28
22 0.28
26 0.15
27 0.15
28 0.15
3 -0.57
32 0.15
33 0.15
34 0.15
4 -0.36
5 0.42
6 0.06
7 0.09
8 0.08
9 0.42

> <PUBCHEM_EFFECTIVE_ROTOR_COUNT>
3.6

> <PUBCHEM_PHARMACOPHORE_FEATURES>
7
1 1 acceptor
1 2 acceptor
1 3 acceptor
1 4 acceptor
6 1 5 6 7 8 9 rings
6 10 15 16 18 19 20 rings
6 7 8 11 12 13 14 rings

> <PUBCHEM_HEAVY_ATOM_COUNT>
22

> <PUBCHEM_ATOM_DEF_STEREO_COUNT>
0

> <PUBCHEM_ATOM_UDEF_STEREO_COUNT>
1

> <PUBCHEM_BOND_DEF_STEREO_COUNT>
0

> <PUBCHEM_BOND_UDEF_STEREO_COUNT>
0

> <PUBCHEM_ISOTOPIC_ATOM_COUNT>
0

> <PUBCHEM_COMPONENT_COUNT>
1

> <PUBCHEM_CACTVS_TAUTO_COUNT>
2

> <PUBCHEM_CONFORMER_ID>
002E4E4600000001

> <PUBCHEM_MMFF94_ENERGY>
87.9451

> <PUBCHEM_FEATURE_SELFOVERLAP>
35.565

> <PUBCHEM_SHAPE_FINGERPRINT>
10411042 1 17977382729406576786
10693767 8 18131355181280781702
10906281 52 18410583903080250904
10967382 1 18410291415285140776
11471102 20 18409444761161642963
11796584 16 14764636304363539613
12107183 9 17768538188175677617
12236239 1 17917989460557015121
12403259 415 17894910699079946317
12553582 1 18122337982751519371
12730499 353 18335989765243919947
13009979 54 17702953500235909723
13140716 1 18334295379023495530
13167823 11 18272928298478233479
13464514 151 18339930432229509596
13533116 47 18343860027037323471
14790565 3 18192158311187738140
15081414 286 18335141998724321501
15196674 1 18410291441192269931
15342168 16 18188491392653103653
15475509 8 17555197764772959494
15536298 74 18272084972521600579
15848702 151 18129942256893182479
17492 89 18272085033021155343
17818456 19 17344072862243946481
1813 80 17984709913400770590
18186145 218 18334853892423119831
204376 136 18261673778685955601
20554085 129 17916007140325322200
20612939 158 18410572868829271469
20645477 70 18409162195294920079
20739085 24 18260840258404092220
21033648 29 17240474785320951269
21033650 10 15625962923185279915
21120745 212 16237273529486266226
21267235 1 18270687450636162467
21478907 32 17691123738858947874
21709351 56 18267580209158332319
221490 88 18409733975854511643
22182313 1 18190480421993751674
2255824 54 18410853222498193147
23559900 14 18342453738401227314
23598291 2 18202000984955164781
25 1 18337388352460835664
2748010 2 18263092148580759482
29717793 49 17916858024896231805
335352 9 18409449207159448916
34797466 226 15697711623154245233
350125 39 18336265639773589788
474 4 18409726283577997385
5104073 3 18334853969568787387
543358 83 18341895181771588008
6034566 193 17681007488563864788
633830 44 18410291385421135127
8272917 22 18412546500495599943
84936 182 18130782416646515792
9709674 26 18410293644621697755
9841814 1 18188200988792858082
9971528 1 18200305524908292698
9981440 41 17622986307453216121
9999458 23 18261394407879704014

> <PUBCHEM_SHAPE_MULTIPOLES>
429.27
10.06
3.32
0.95
10.78
0.33
-0.19
-3.31
-1.9
-5.17
-0.28
0.4
-0.03
-0.67

> <PUBCHEM_SHAPE_SELFOVERLAP>
936.16

> <PUBCHEM_SHAPE_VOLUME>
233.6

> <PUBCHEM_COORDINATE_TYPE>
2
5
10

$$$$