10394010
  -OEChem-03242010103D

 79 85  0     1  0  0  0  0  0999 V2000
    0.9384    0.0444   -1.2986 O   0  0  0  0  0  0  0  0  0  0  0  0
    2.3303    1.3120    0.1708 O   0  0  0  0  0  0  0  0  0  0  0  0
    2.6318   -0.7297    1.7969 O   0  0  0  0  0  0  0  0  0  0  0  0
   -3.6165   -0.4640    0.3760 O   0  0  0  0  0  0  0  0  0  0  0  0
    2.0107   -3.4428    1.0538 O   0  0  0  0  0  0  0  0  0  0  0  0
    0.1380   -1.9666    2.8597 O   0  0  0  0  0  0  0  0  0  0  0  0
    3.3861   -4.0056   -1.3930 O   0  0  0  0  0  0  0  0  0  0  0  0
   -1.8749   -0.4146   -2.9015 O   0  0  0  0  0  0  0  0  0  0  0  0
   -2.5806   -1.6080    2.5710 O   0  0  0  0  0  0  0  0  0  0  0  0
    4.1428   -1.8935   -2.9085 O   0  0  0  0  0  0  0  0  0  0  0  0
    2.1583    0.0372   -0.4956 C   0  0  1  0  0  0  0  0  0  0  0  0
    1.9689   -1.0658    0.5856 C   0  0  2  0  0  0  0  0  0  0  0  0
    0.4816   -0.9486    0.7263 C   0  0  0  0  0  0  0  0  0  0  0  0
    3.3219   -0.2477   -1.4034 C   0  0  0  0  0  0  0  0  0  0  0  0
   -0.0383   -0.3356   -0.4082 C   0  0  0  0  0  0  0  0  0  0  0  0
    2.3879   -2.4572    0.1566 C   0  0  0  0  0  0  0  0  0  0  0  0
   -1.3994   -0.1421   -0.5976 C   0  0  0  0  0  0  0  0  0  0  0  0
    2.6556    2.3766   -0.7321 C   0  0  2  0  0  0  0  0  0  0  0  0
   -0.3571   -1.3768    1.7401 C   0  0  0  0  0  0  0  0  0  0  0  0
    4.0413    2.1232   -1.3384 C   0  0  0  0  0  0  0  0  0  0  0  0
    4.1885    0.7015   -1.7894 C   0  0  0  0  0  0  0  0  0  0  0  0
    3.5562   -1.6384   -1.8609 C   0  0  0  0  0  0  0  0  0  0  0  0
   -1.9362    0.5215   -1.8295 C   0  0  2  0  0  0  0  0  0  0  0  0
    3.0650   -2.7303   -0.9758 C   0  0  0  0  0  0  0  0  0  0  0  0
   -2.2507   -0.5953    0.4201 C   0  0  0  0  0  0  0  0  0  0  0  0
   -1.7324   -1.1915    1.5846 C   0  0  0  0  0  0  0  0  0  0  0  0
   -3.3798    0.9670   -1.6074 C   0  0  0  0  0  0  0  0  0  0  0  0
   -4.1601   -0.1599   -0.9192 C   0  0  2  0  0  0  0  0  0  0  0  0
    2.6025    3.6925    0.0117 C   0  0  0  0  0  0  0  0  0  0  0  0
    4.0429   -0.8396    1.6677 C   0  0  0  0  0  0  0  0  0  0  0  0
   -5.6176    0.2138   -0.7447 C   0  0  0  0  0  0  0  0  0  0  0  0
    2.9201    3.7404    1.3695 C   0  0  0  0  0  0  0  0  0  0  0  0
    2.2363    4.8598   -0.6595 C   0  0  0  0  0  0  0  0  0  0  0  0
    3.1450   -4.1223    1.5485 C   0  0  0  0  0  0  0  0  0  0  0  0
   -0.2956   -3.2976    3.1410 C   0  0  0  0  0  0  0  0  0  0  0  0
    2.3620   -4.5380   -2.2096 C   0  0  0  0  0  0  0  0  0  0  0  0
   -6.0346    0.8693    0.4133 C   0  0  0  0  0  0  0  0  0  0  0  0
   -6.5408   -0.0974   -1.7424 C   0  0  0  0  0  0  0  0  0  0  0  0
    2.8714    4.9539    2.0555 C   0  0  0  0  0  0  0  0  0  0  0  0
    2.1878    6.0733    0.0266 C   0  0  0  0  0  0  0  0  0  0  0  0
   -2.9020   -0.6620    3.5865 C   0  0  0  0  0  0  0  0  0  0  0  0
    2.5054    6.1203    1.3841 C   0  0  0  0  0  0  0  0  0  0  0  0
   -7.3766    1.2139    0.5740 C   0  0  0  0  0  0  0  0  0  0  0  0
   -7.8829    0.2474   -1.5815 C   0  0  0  0  0  0  0  0  0  0  0  0
   -8.3007    0.9029   -0.4233 C   0  0  0  0  0  0  0  0  0  0  0  0
    1.8912    2.3994   -1.5210 H   0  0  0  0  0  0  0  0  0  0  0  0
    4.2086    2.8026   -2.1823 H   0  0  0  0  0  0  0  0  0  0  0  0
    4.8320    2.3204   -0.6034 H   0  0  0  0  0  0  0  0  0  0  0  0
    5.0435    0.4691   -2.4172 H   0  0  0  0  0  0  0  0  0  0  0  0
   -1.3319    1.3946   -2.1013 H   0  0  0  0  0  0  0  0  0  0  0  0
   -3.8456    1.2311   -2.5643 H   0  0  0  0  0  0  0  0  0  0  0  0
   -3.3851    1.8608   -0.9689 H   0  0  0  0  0  0  0  0  0  0  0  0
   -4.1129   -1.0837   -1.5127 H   0  0  0  0  0  0  0  0  0  0  0  0
    4.4583   -0.6874    2.6699 H   0  0  0  0  0  0  0  0  0  0  0  0
    4.4167   -1.8058    1.3318 H   0  0  0  0  0  0  0  0  0  0  0  0
    4.4529   -0.0362    1.0523 H   0  0  0  0  0  0  0  0  0  0  0  0
   -0.9457   -0.6752   -3.0220 H   0  0  0  0  0  0  0  0  0  0  0  0
    3.2202    2.8484    1.9128 H   0  0  0  0  0  0  0  0  0  0  0  0
    1.9885    4.8364   -1.7174 H   0  0  0  0  0  0  0  0  0  0  0  0
    3.4266   -3.6846    2.5125 H   0  0  0  0  0  0  0  0  0  0  0  0
    4.0321   -4.1449    0.9088 H   0  0  0  0  0  0  0  0  0  0  0  0
    2.8543   -5.1602    1.7411 H   0  0  0  0  0  0  0  0  0  0  0  0
   -0.6010   -3.8358    2.2369 H   0  0  0  0  0  0  0  0  0  0  0  0
   -1.1151   -3.2769    3.8648 H   0  0  0  0  0  0  0  0  0  0  0  0
    0.5413   -3.8359    3.5954 H   0  0  0  0  0  0  0  0  0  0  0  0
    2.6673   -5.5387   -2.5299 H   0  0  0  0  0  0  0  0  0  0  0  0
    2.2061   -3.9300   -3.1076 H   0  0  0  0  0  0  0  0  0  0  0  0
    1.4218   -4.6346   -1.6553 H   0  0  0  0  0  0  0  0  0  0  0  0
   -5.3330    1.1349    1.1992 H   0  0  0  0  0  0  0  0  0  0  0  0
   -6.2269   -0.6060   -2.6500 H   0  0  0  0  0  0  0  0  0  0  0  0
    3.1214    4.9913    3.1118 H   0  0  0  0  0  0  0  0  0  0  0  0
    1.9035    6.9819   -0.4962 H   0  0  0  0  0  0  0  0  0  0  0  0
   -3.4010    0.2124    3.1570 H   0  0  0  0  0  0  0  0  0  0  0  0
   -2.0005   -0.3521    4.1242 H   0  0  0  0  0  0  0  0  0  0  0  0
   -3.5840   -1.1392    4.2955 H   0  0  0  0  0  0  0  0  0  0  0  0
    2.4684    7.0653    1.9180 H   0  0  0  0  0  0  0  0  0  0  0  0
   -7.7017    1.7271    1.4742 H   0  0  0  0  0  0  0  0  0  0  0  0
   -8.6024    0.0060   -2.3584 H   0  0  0  0  0  0  0  0  0  0  0  0
   -9.3454    1.1722   -0.2986 H   0  0  0  0  0  0  0  0  0  0  0  0
  1 11  1  0  0  0  0
  1 15  1  0  0  0  0
  2 11  1  0  0  0  0
  2 18  1  0  0  0  0
  3 12  1  0  0  0  0
  3 30  1  0  0  0  0
  4 25  1  0  0  0  0
  4 28  1  0  0  0  0
  5 16  1  0  0  0  0
  5 34  1  0  0  0  0
  6 19  1  0  0  0  0
  6 35  1  0  0  0  0
  7 24  1  0  0  0  0
  7 36  1  0  0  0  0
  8 23  1  0  0  0  0
  8 57  1  0  0  0  0
  9 26  1  0  0  0  0
  9 41  1  0  0  0  0
 10 22  2  0  0  0  0
 11 12  1  0  0  0  0
 11 14  1  0  0  0  0
 12 13  1  0  0  0  0
 12 16  1  0  0  0  0
 13 15  1  0  0  0  0
 13 19  2  0  0  0  0
 14 21  2  0  0  0  0
 14 22  1  0  0  0  0
 15 17  2  0  0  0  0
 16 24  2  0  0  0  0
 17 23  1  0  0  0  0
 17 25  1  0  0  0  0
 18 20  1  0  0  0  0
 18 29  1  0  0  0  0
 18 46  1  0  0  0  0
 19 26  1  0  0  0  0
 20 21  1  0  0  0  0
 20 47  1  0  0  0  0
 20 48  1  0  0  0  0
 21 49  1  0  0  0  0
 22 24  1  0  0  0  0
 23 27  1  0  0  0  0
 23 50  1  0  0  0  0
 25 26  2  0  0  0  0
 27 28  1  0  0  0  0
 27 51  1  0  0  0  0
 27 52  1  0  0  0  0
 28 31  1  0  0  0  0
 28 53  1  0  0  0  0
 29 32  2  0  0  0  0
 29 33  1  0  0  0  0
 30 54  1  0  0  0  0
 30 55  1  0  0  0  0
 30 56  1  0  0  0  0
 31 37  2  0  0  0  0
 31 38  1  0  0  0  0
 32 39  1  0  0  0  0
 32 58  1  0  0  0  0
 33 40  2  0  0  0  0
 33 59  1  0  0  0  0
 34 60  1  0  0  0  0
 34 61  1  0  0  0  0
 34 62  1  0  0  0  0
 35 63  1  0  0  0  0
 35 64  1  0  0  0  0
 35 65  1  0  0  0  0
 36 66  1  0  0  0  0
 36 67  1  0  0  0  0
 36 68  1  0  0  0  0
 37 43  1  0  0  0  0
 37 69  1  0  0  0  0
 38 44  2  0  0  0  0
 38 70  1  0  0  0  0
 39 42  2  0  0  0  0
 39 71  1  0  0  0  0
 40 42  1  0  0  0  0
 40 72  1  0  0  0  0
 41 73  1  0  0  0  0
 41 74  1  0  0  0  0
 41 75  1  0  0  0  0
 42 76  1  0  0  0  0
 43 45  2  0  0  0  0
 43 77  1  0  0  0  0
 44 45  1  0  0  0  0
 44 78  1  0  0  0  0
 45 79  1  0  0  0  0
M  END
> <PUBCHEM_COMPOUND_CID>
10394010

> <PUBCHEM_CONFORMER_RMSD>
1.2

> <PUBCHEM_CONFORMER_DIVERSEORDER>
1
2

> <PUBCHEM_MMFF94_PARTIAL_CHARGES>
56
1 -0.36
10 -0.57
11 0.7
12 0.56
13 -0.14
14 -0.12
15 0.08
16 -0.06
17 -0.14
18 0.42
19 0.08
2 -0.56
20 0.14
21 -0.29
22 0.54
23 0.42
24 0.09
25 0.08
26 0.08
28 0.42
29 -0.14
3 -0.56
30 0.28
31 -0.14
32 -0.15
33 -0.15
34 0.28
35 0.28
36 0.28
37 -0.15
38 -0.15
39 -0.15
4 -0.36
40 -0.15
41 0.28
42 -0.15
43 -0.15
44 -0.15
45 -0.15
49 0.15
5 -0.36
57 0.4
58 0.15
59 0.15
6 -0.36
69 0.15
7 -0.36
70 0.15
71 0.15
72 0.15
76 0.15
77 0.15
78 0.15
79 0.15
8 -0.68
9 -0.36

> <PUBCHEM_EFFECTIVE_ROTOR_COUNT>
8.6

> <PUBCHEM_PHARMACOPHORE_FEATURES>
18
1 1 acceptor
1 10 acceptor
1 2 acceptor
1 3 acceptor
1 4 acceptor
1 5 acceptor
1 6 acceptor
1 7 acceptor
1 8 acceptor
1 8 donor
1 9 acceptor
5 1 11 12 13 15 rings
6 11 12 14 16 22 24 rings
6 13 15 17 19 25 26 rings
6 2 11 14 18 20 21 rings
6 29 32 33 39 40 42 rings
6 31 37 38 43 44 45 rings
6 4 17 23 25 27 28 rings

> <PUBCHEM_HEAVY_ATOM_COUNT>
45

> <PUBCHEM_ATOM_DEF_STEREO_COUNT>
5

> <PUBCHEM_ATOM_UDEF_STEREO_COUNT>
0

> <PUBCHEM_BOND_DEF_STEREO_COUNT>
0

> <PUBCHEM_BOND_UDEF_STEREO_COUNT>
0

> <PUBCHEM_ISOTOPIC_ATOM_COUNT>
0

> <PUBCHEM_COMPONENT_COUNT>
1

> <PUBCHEM_CACTVS_TAUTO_COUNT>
3

> <PUBCHEM_CONFORMER_ID>
009E999A00000001

> <PUBCHEM_MMFF94_ENERGY>
178.2774

> <PUBCHEM_FEATURE_SELFOVERLAP>
91.84

> <PUBCHEM_SHAPE_FINGERPRINT>
10305334 12 12080522189317627680
10673678 19 18056750151517994921
10721379 63 16916778643312664289
10816530 23 18197775703530293151
11115154 58 18198356056221660437
11456790 92 17968369057430237129
11505856 67 16892868899399330037
11578080 2 18116438235522159825
12107698 1 18343584006437672125
12522641 24 18335706014678328161
12788726 201 17689725160273469692
13383668 362 16950829401643641809
13911987 19 18050607103566911902
14068700 686 17978517764893123423
15082195 135 18130794485821076017
15297060 5 17458356246805725615
15324884 4 17828790634803158470
15439362 3 17912640500251686468
15444296 8 17408266675863081342
16114785 44 17328057294812954906
17899979 129 18270124637668482124
19311894 1 17692819185847046557
21033648 29 17897448508818314585
22122407 14 18270697432457033809
22149856 69 16661502697527098277
23559900 14 17895202120567899023
25223398 141 16414642532548714025
376196 1 18190739945339442962
508180 173 18263651654113003329
6086070 43 18336274517169778090
6376802 137 17683784541814231034

> <PUBCHEM_SHAPE_MULTIPOLES>
867.39
13.8
6.89
3.03
38.98
9.06
-1.32
5.15
5.53
-14.42
-2.27
-0.19
-2.17
2.45

> <PUBCHEM_SHAPE_SELFOVERLAP>
1941.204

> <PUBCHEM_SHAPE_VOLUME>
454.1

> <PUBCHEM_COORDINATE_TYPE>
2
5
10

$$$$