53317176
  -OEChem-03242010103D

 75 77  0     1  0  0  0  0  0999 V2000
   -2.7258    0.1548    0.0552 O   0  0  0  0  0  0  0  0  0  0  0  0
   -0.1037    3.7740   -1.2819 O   0  0  0  0  0  0  0  0  0  0  0  0
    1.3701   -1.9932    1.7883 O   0  0  0  0  0  0  0  0  0  0  0  0
    4.5982    2.4700    0.6918 O   0  0  0  0  0  0  0  0  0  0  0  0
    2.7771   -3.7523    0.9752 O   0  0  0  0  0  0  0  0  0  0  0  0
   -3.8856    2.1427    0.1058 O   0  0  0  0  0  0  0  0  0  0  0  0
    2.6079    3.3993    1.4275 O   0  0  0  0  0  0  0  0  0  0  0  0
    2.5651   -4.5938   -1.6851 O   0  0  0  0  0  0  0  0  0  0  0  0
    1.0321    0.0494   -1.3580 C   0  0  0  0  0  0  0  0  0  0  0  0
    0.2923    1.3934   -1.7564 C   0  0  1  0  0  0  0  0  0  0  0  0
   -1.2117    1.1935   -1.4887 C   0  0  0  0  0  0  0  0  0  0  0  0
    0.7743   -0.2728    0.1452 C   0  0  0  0  0  0  0  0  0  0  0  0
   -1.4890    0.8650   -0.0224 C   0  0  2  0  0  0  0  0  0  0  0  0
    0.8216    2.7017   -1.0529 C   0  0  1  0  0  0  0  0  0  0  0  0
   -0.4012    0.1033    0.7246 C   0  0  0  0  0  0  0  0  0  0  0  0
    2.5135    0.1444   -1.7872 C   0  0  0  0  0  0  0  0  0  0  0  0
    0.4696   -1.1546   -2.1676 C   0  0  0  0  0  0  0  0  0  0  0  0
    1.8940   -1.0084    0.8995 C   0  0  1  0  0  0  0  0  0  0  0  0
   -0.7592   -0.1056    2.1802 C   0  0  0  0  0  0  0  0  0  0  0  0
    2.1384    3.2401   -1.5580 C   0  0  0  0  0  0  0  0  0  0  0  0
    2.7327   -0.0131    1.6626 C   0  0  0  0  0  0  0  0  0  0  0  0
    3.2715    3.4811   -0.8766 C   0  0  0  0  0  0  0  0  0  0  0  0
   -0.0029    4.7577   -0.2680 C   0  0  0  0  0  0  0  0  0  0  0  0
   -3.8459    0.9222    0.1137 C   0  0  0  0  0  0  0  0  0  0  0  0
    3.9992    0.2878    1.3404 C   0  0  0  0  0  0  0  0  0  0  0  0
    2.3320   -2.9978    2.1022 C   0  0  0  0  0  0  0  0  0  0  0  0
    4.6684    1.5462    1.8030 C   0  0  0  0  0  0  0  0  0  0  0  0
    3.4318    3.1658    0.5587 C   0  0  0  0  0  0  0  0  0  0  0  0
   -5.0581    0.0685    0.1914 C   0  0  0  0  0  0  0  0  0  0  0  0
   -6.3217    0.6553    0.2601 C   0  0  0  0  0  0  0  0  0  0  0  0
   -4.9333   -1.3206    0.1942 C   0  0  0  0  0  0  0  0  0  0  0  0
    1.8393   -4.7490    0.5908 C   0  0  0  0  0  0  0  0  0  0  0  0
   -7.4605   -0.1471    0.3316 C   0  0  0  0  0  0  0  0  0  0  0  0
   -6.0720   -2.1232    0.2656 C   0  0  0  0  0  0  0  0  0  0  0  0
    2.3824   -5.5038   -0.6073 C   0  0  0  0  0  0  0  0  0  0  0  0
   -7.3356   -1.5363    0.3343 C   0  0  0  0  0  0  0  0  0  0  0  0
    3.0949   -5.2446   -2.8316 C   0  0  0  0  0  0  0  0  0  0  0  0
    0.3935    1.5425   -2.8413 H   0  0  0  0  0  0  0  0  0  0  0  0
   -1.6201    0.4121   -2.1409 H   0  0  0  0  0  0  0  0  0  0  0  0
   -1.7828    2.0840   -1.7797 H   0  0  0  0  0  0  0  0  0  0  0  0
   -1.5767    1.8233    0.5107 H   0  0  0  0  0  0  0  0  0  0  0  0
    0.8651    2.5002    0.0202 H   0  0  0  0  0  0  0  0  0  0  0  0
    0.4639   -0.9363   -3.2416 H   0  0  0  0  0  0  0  0  0  0  0  0
   -0.5486   -1.4305   -1.8739 H   0  0  0  0  0  0  0  0  0  0  0  0
    1.0802   -2.0534   -2.0165 H   0  0  0  0  0  0  0  0  0  0  0  0
    2.5977    0.5215   -2.8136 H   0  0  0  0  0  0  0  0  0  0  0  0
    3.0147   -0.8302   -1.7824 H   0  0  0  0  0  0  0  0  0  0  0  0
    3.0938    0.7993   -1.1444 H   0  0  0  0  0  0  0  0  0  0  0  0
    2.5011   -1.5329    0.1572 H   0  0  0  0  0  0  0  0  0  0  0  0
   -1.4395   -0.9574    2.2806 H   0  0  0  0  0  0  0  0  0  0  0  0
    0.1000   -0.2691    2.8316 H   0  0  0  0  0  0  0  0  0  0  0  0
   -1.2639    0.7813    2.5804 H   0  0  0  0  0  0  0  0  0  0  0  0
    2.1591    3.4723   -2.6228 H   0  0  0  0  0  0  0  0  0  0  0  0
    2.2253    0.6008    2.4032 H   0  0  0  0  0  0  0  0  0  0  0  0
    4.1495    3.8441   -1.4020 H   0  0  0  0  0  0  0  0  0  0  0  0
   -0.1908    4.3264    0.7206 H   0  0  0  0  0  0  0  0  0  0  0  0
    0.9646    5.2668   -0.2847 H   0  0  0  0  0  0  0  0  0  0  0  0
   -0.7745    5.5106   -0.4543 H   0  0  0  0  0  0  0  0  0  0  0  0
    4.5115   -0.2845    0.5715 H   0  0  0  0  0  0  0  0  0  0  0  0
    1.8968   -3.6638    2.8561 H   0  0  0  0  0  0  0  0  0  0  0  0
    3.2109   -2.5375    2.5663 H   0  0  0  0  0  0  0  0  0  0  0  0
    4.2141    1.9771    2.7021 H   0  0  0  0  0  0  0  0  0  0  0  0
    5.7240    1.3554    2.0181 H   0  0  0  0  0  0  0  0  0  0  0  0
   -6.4404    1.7355    0.2589 H   0  0  0  0  0  0  0  0  0  0  0  0
   -3.9701   -1.8202    0.1422 H   0  0  0  0  0  0  0  0  0  0  0  0
    0.8935   -4.2623    0.3262 H   0  0  0  0  0  0  0  0  0  0  0  0
    1.6711   -5.4440    1.4207 H   0  0  0  0  0  0  0  0  0  0  0  0
   -8.4444    0.3096    0.3850 H   0  0  0  0  0  0  0  0  0  0  0  0
   -5.9754   -3.2050    0.2678 H   0  0  0  0  0  0  0  0  0  0  0  0
    3.3497   -5.9530   -0.3541 H   0  0  0  0  0  0  0  0  0  0  0  0
    1.6813   -6.2923   -0.9017 H   0  0  0  0  0  0  0  0  0  0  0  0
   -8.2222   -2.1611    0.3900 H   0  0  0  0  0  0  0  0  0  0  0  0
    4.0771   -5.6732   -2.6103 H   0  0  0  0  0  0  0  0  0  0  0  0
    2.4119   -6.0255   -3.1796 H   0  0  0  0  0  0  0  0  0  0  0  0
    3.2095   -4.5022   -3.6259 H   0  0  0  0  0  0  0  0  0  0  0  0
  1 13  1  0  0  0  0
  1 24  1  0  0  0  0
  2 14  1  0  0  0  0
  2 23  1  0  0  0  0
  3 18  1  0  0  0  0
  3 26  1  0  0  0  0
  4 27  1  0  0  0  0
  4 28  1  0  0  0  0
  5 26  1  0  0  0  0
  5 32  1  0  0  0  0
  6 24  2  0  0  0  0
  7 28  2  0  0  0  0
  8 35  1  0  0  0  0
  8 37  1  0  0  0  0
  9 10  1  0  0  0  0
  9 12  1  0  0  0  0
  9 16  1  0  0  0  0
  9 17  1  0  0  0  0
 10 11  1  0  0  0  0
 10 14  1  0  0  0  0
 10 38  1  0  0  0  0
 11 13  1  0  0  0  0
 11 39  1  0  0  0  0
 11 40  1  0  0  0  0
 12 15  2  0  0  0  0
 12 18  1  0  0  0  0
 13 15  1  0  0  0  0
 13 41  1  0  0  0  0
 14 20  1  0  0  0  0
 14 42  1  0  0  0  0
 15 19  1  0  0  0  0
 16 46  1  0  0  0  0
 16 47  1  0  0  0  0
 16 48  1  0  0  0  0
 17 43  1  0  0  0  0
 17 44  1  0  0  0  0
 17 45  1  0  0  0  0
 18 21  1  0  0  0  0
 18 49  1  0  0  0  0
 19 50  1  0  0  0  0
 19 51  1  0  0  0  0
 19 52  1  0  0  0  0
 20 22  2  0  0  0  0
 20 53  1  0  0  0  0
 21 25  2  0  0  0  0
 21 54  1  0  0  0  0
 22 28  1  0  0  0  0
 22 55  1  0  0  0  0
 23 56  1  0  0  0  0
 23 57  1  0  0  0  0
 23 58  1  0  0  0  0
 24 29  1  0  0  0  0
 25 27  1  0  0  0  0
 25 59  1  0  0  0  0
 26 60  1  0  0  0  0
 26 61  1  0  0  0  0
 27 62  1  0  0  0  0
 27 63  1  0  0  0  0
 29 30  2  0  0  0  0
 29 31  1  0  0  0  0
 30 33  1  0  0  0  0
 30 64  1  0  0  0  0
 31 34  2  0  0  0  0
 31 65  1  0  0  0  0
 32 35  1  0  0  0  0
 32 66  1  0  0  0  0
 32 67  1  0  0  0  0
 33 36  2  0  0  0  0
 33 68  1  0  0  0  0
 34 36  1  0  0  0  0
 34 69  1  0  0  0  0
 35 70  1  0  0  0  0
 35 71  1  0  0  0  0
 36 72  1  0  0  0  0
 37 73  1  0  0  0  0
 37 74  1  0  0  0  0
 37 75  1  0  0  0  0
M  END
> <PUBCHEM_COMPOUND_CID>
53317176

> <PUBCHEM_CONFORMER_RMSD>
1.2

> <PUBCHEM_CONFORMER_DIVERSEORDER>
1
10
6
8
7
4
2
9
3
5

> <PUBCHEM_MMFF94_PARTIAL_CHARGES>
42
1 -0.43
12 -0.28
13 0.42
14 0.42
15 -0.28
18 0.56
19 0.14
2 -0.56
20 -0.29
21 -0.29
22 -0.14
23 0.28
24 0.63
25 -0.29
26 0.56
27 0.42
28 0.71
29 0.09
3 -0.56
30 -0.15
31 -0.15
32 0.28
33 -0.15
34 -0.15
35 0.28
36 -0.15
37 0.28
4 -0.43
5 -0.56
53 0.15
54 0.15
55 0.15
59 0.15
6 -0.57
64 0.15
65 0.15
68 0.15
69 0.15
7 -0.57
72 0.15
8 -0.56
9 0.14

> <PUBCHEM_EFFECTIVE_ROTOR_COUNT>
11.4

> <PUBCHEM_PHARMACOPHORE_FEATURES>
9
1 2 acceptor
1 3 acceptor
1 5 acceptor
1 6 acceptor
1 7 acceptor
1 8 acceptor
3 9 16 17 hydrophobe
6 29 30 31 33 34 36 rings
6 9 10 11 12 13 15 rings

> <PUBCHEM_HEAVY_ATOM_COUNT>
37

> <PUBCHEM_ATOM_DEF_STEREO_COUNT>
4

> <PUBCHEM_ATOM_UDEF_STEREO_COUNT>
0

> <PUBCHEM_BOND_DEF_STEREO_COUNT>
2

> <PUBCHEM_BOND_UDEF_STEREO_COUNT>
0

> <PUBCHEM_ISOTOPIC_ATOM_COUNT>
0

> <PUBCHEM_COMPONENT_COUNT>
1

> <PUBCHEM_CACTVS_TAUTO_COUNT>
1

> <PUBCHEM_CONFORMER_ID>
032D8E3800000001

> <PUBCHEM_MMFF94_ENERGY>
120.1951

> <PUBCHEM_FEATURE_SELFOVERLAP>
45.711

> <PUBCHEM_SHAPE_FINGERPRINT>
10010297 198 18273205418026368919
12623949 98 18269834224938538231
131258 43 18056490439430756318
1361 2 18188204411354019041
13692114 37 17835519697642080671
15183329 4 9222969096588722265
15324884 4 17336433391130031458
15484559 13 18188494691309598218
15927050 60 17397830558327558900
17909252 39 18335143038047611491
20028762 73 18336827614341764271
23559900 14 18270411464912220447
27425 322 17486473078400034896
4017518 198 18268159828549937462
4144715 1 18261674758514012529
513532 50 18410018753586771644
57527306 92 16916781955033753856
57527452 28 18272089444152658176
57816373 69 18127126365139808407
70251023 43 18267317442658275052

> <PUBCHEM_SHAPE_MULTIPOLES>
714.49
12.46
7.07
2.19
32.31
7.52
-0.46
1.91
3.51
-11.06
-3.03
-2.89
1.32
1.53

> <PUBCHEM_SHAPE_SELFOVERLAP>
1478.502

> <PUBCHEM_SHAPE_VOLUME>
402

> <PUBCHEM_COORDINATE_TYPE>
2
5
10

$$$$