125
 OpenBabel03292022003D

196196  0  0  1  0  0  0  0  0999 V2000
    4.8405   -6.3776   -8.0561 C   0  0  0  0  0  0  0  0  0  0  0  0
    4.0792   -7.2775   -9.0132 C   0  0  0  0  0  0  0  0  0  0  0  0
    4.5429   -7.0694  -10.4195 C   0  0  0  0  0  0  0  0  0  0  0  0
    5.1123   -8.0170  -11.1814 C   0  0  0  0  0  0  0  0  0  0  0  0
    5.4626   -7.7577  -12.6147 C   0  0  0  0  0  0  0  0  0  0  0  0
    6.9492   -7.8562  -13.0119 C   0  0  1  0  0  0  0  0  0  0  0  0
    7.4566   -9.2914  -12.7982 C   0  0  0  0  0  0  0  0  0  0  0  0
    7.1750   -7.4247  -14.4930 C   0  0  1  0  0  0  0  0  0  0  0  0
    8.5284   -7.7040  -14.8804 O   0  0  0  0  0  0  0  0  0  0  0  0
    6.7959   -5.9553  -14.8620 C   0  0  2  0  0  0  0  0  0  0  0  0
    7.4094   -4.9477  -13.9680 N   0  0  0  0  0  0  0  0  0  0  0  0
    8.7529   -4.6508  -13.9522 C   0  0  0  0  0  0  0  0  0  0  0  0
    9.5630   -5.3151  -14.5981 O   0  0  0  0  0  0  0  0  0  0  0  0
    9.2050   -3.5052  -13.0093 C   0  0  1  0  0  0  0  0  0  0  0  0
    8.0693   -2.7873  -12.4351 N   0  0  0  0  0  0  0  0  0  0  0  0
    7.7447   -1.5081  -12.8348 C   0  0  0  0  0  0  0  0  0  0  0  0
    8.4523   -0.8390  -13.5827 O   0  0  0  0  0  0  0  0  0  0  0  0
    6.4500   -0.9674  -12.1989 C   0  0  2  0  0  0  0  0  0  0  0  0
    5.7681    0.1024  -13.0762 C   0  0  0  0  0  0  0  0  0  0  0  0
    5.3793   -0.3862  -14.4869 C   0  0  0  0  0  0  0  0  0  0  0  0
    4.4049   -1.5589  -14.4517 C   0  0  0  0  0  0  0  0  0  0  0  0
    4.7740    0.7667  -15.2862 C   0  0  0  0  0  0  0  0  0  0  0  0
    6.7461   -0.4776  -10.8358 N   0  0  0  0  0  0  0  0  0  0  0  0
    7.6309    0.6688  -10.7337 C   0  0  0  0  0  0  0  0  0  0  0  0
    6.4976   -1.3434   -9.7699 C   0  0  0  0  0  0  0  0  0  0  0  0
    6.1284   -2.5053   -9.9989 O   0  0  0  0  0  0  0  0  0  0  0  0
    6.5895   -0.8686   -8.2816 C   0  0  2  0  0  0  0  0  0  0  0  0
    5.2497   -1.0873   -7.5321 C   0  0  0  0  0  0  0  0  0  0  0  0
    4.0660   -0.1364   -7.8398 C   0  0  0  0  0  0  0  0  0  0  0  0
    3.5661   -0.1955   -9.2811 C   0  0  0  0  0  0  0  0  0  0  0  0
    2.8995   -0.4617   -6.8959 C   0  0  0  0  0  0  0  0  0  0  0  0
    7.1285    0.4467   -7.9708 N   0  0  0  0  0  0  0  0  0  0  0  0
    8.4284    0.6653   -7.5753 C   0  0  0  0  0  0  0  0  0  0  0  0
    9.2501   -0.2359   -7.4235 O   0  0  0  0  0  0  0  0  0  0  0  0
    8.7798    2.1387   -7.2742 C   0  0  1  0  0  0  0  0  0  0  0  0
    8.4509    3.1098   -8.4071 C   0  0  0  0  0  0  0  0  0  0  0  0
    8.2018    2.5253   -5.9942 N   0  0  0  0  0  0  0  0  0  0  0  0
    6.8549    2.6862   -5.7818 C   0  0  0  0  0  0  0  0  0  0  0  0
    6.0088    2.5592   -6.6869 O   0  0  0  0  0  0  0  0  0  0  0  0
    6.4826    3.2235   -4.3988 C   0  0  2  0  0  0  0  0  0  0  0  0
    6.8384    4.7095   -4.3727 C   0  0  0  0  0  0  0  0  0  0  0  0
    7.1660    2.4894   -3.3253 N   0  0  0  0  0  0  0  0  0  0  0  0
    6.7294    2.6265   -2.0180 C   0  0  0  0  0  0  0  0  0  0  0  0
    5.7722    3.3402   -1.7225 O   0  0  0  0  0  0  0  0  0  0  0  0
    7.4662    1.7611   -0.9725 C   0  0  1  0  0  0  0  0  0  0  0  0
    7.7040    2.6183    0.2866 C   0  0  0  0  0  0  0  0  0  0  0  0
    8.4191    1.9050    1.4508 C   0  0  0  0  0  0  0  0  0  0  0  0
    9.8282    1.4230    1.1011 C   0  0  0  0  0  0  0  0  0  0  0  0
    8.4926    2.8415    2.6624 C   0  0  0  0  0  0  0  0  0  0  0  0
    6.6524    0.5902   -0.6491 N   0  0  0  0  0  0  0  0  0  0  0  0
    7.0838   -0.7021   -0.8653 C   0  0  0  0  0  0  0  0  0  0  0  0
    8.2083   -0.9427   -1.3032 O   0  0  0  0  0  0  0  0  0  0  0  0
    6.1537   -1.8278   -0.3101 C   0  0  2  0  0  0  0  0  0  0  0  0
    4.7331   -1.4187   -0.3809 N   0  0  0  0  0  0  0  0  0  0  0  0
    4.1005   -1.1922   -1.5853 C   0  0  0  0  0  0  0  0  0  0  0  0
    4.7254   -1.2259   -2.6457 O   0  0  0  0  0  0  0  0  0  0  0  0
    2.5882   -0.7846   -1.5285 C   0  0  1  0  0  0  0  0  0  0  0  0
    1.8679   -0.8699   -0.1466 C   0  0  0  0  0  0  0  0  0  0  0  0
    2.3005    0.0492    1.0233 C   0  0  0  0  0  0  0  0  0  0  0  0
    2.2203    1.5470    0.7573 C   0  0  0  0  0  0  0  0  0  0  0  0
    1.4381   -0.2449    2.2607 C   0  0  0  0  0  0  0  0  0  0  0  0
    2.2571    0.4481   -2.2827 N   0  0  0  0  0  0  0  0  0  0  0  0
    3.2608    1.4525   -2.6030 C   0  0  0  0  0  0  0  0  0  0  0  0
    0.9725    0.6391   -2.7575 C   0  0  0  0  0  0  0  0  0  0  0  0
    0.0311   -0.1275   -2.6070 O   0  0  0  0  0  0  0  0  0  0  0  0
    6.5174   -2.1595    1.1714 C   0  0  0  0  0  0  0  0  0  0  0  0
    5.7658   -3.4005    1.6843 C   0  0  0  0  0  0  0  0  0  0  0  0
    8.0154   -2.3997    1.3975 C   0  0  0  0  0  0  0  0  0  0  0  0
   10.1983   -4.0127  -11.9385 C   0  0  0  0  0  0  0  0  0  0  0  0
   10.7745   -2.8588  -11.1109 C   0  0  0  0  0  0  0  0  0  0  0  0
    9.5965   -5.0712  -11.0131 C   0  0  0  0  0  0  0  0  0  0  0  0
    5.2638   -5.7234  -14.8706 C   0  0  0  0  0  0  0  0  0  0  0  0
    4.7603   -4.7541  -14.2989 O   0  0  0  0  0  0  0  0  0  0  0  0
    4.4894   -6.6741  -15.4875 N   0  0  0  0  0  0  0  0  0  0  0  0
    3.0271   -6.7315  -15.3335 C   0  0  1  0  0  0  0  0  0  0  0  0
    2.3543   -5.9041  -16.4282 C   0  0  0  0  0  0  0  0  0  0  0  0
    2.7488   -6.3051  -17.8448 C   0  0  0  0  0  0  0  0  0  0  0  0
    2.6114   -8.2271  -15.2786 C   0  0  0  0  0  0  0  0  0  0  0  0
    3.3175   -9.0698  -15.8490 O   0  0  0  0  0  0  0  0  0  0  0  0
    1.4796   -8.6077  -14.5798 N   0  0  0  0  0  0  0  0  0  0  0  0
    1.1399  -10.0249  -14.4614 C   0  0  0  0  0  0  0  0  0  0  0  0
   -0.0867  -10.0736  -13.5599 C   0  0  0  0  0  0  0  0  0  0  0  0
   -0.7567   -8.7353  -13.8458 C   0  0  0  0  0  0  0  0  0  0  0  0
    0.4350   -7.7721  -13.9784 C   0  0  1  0  0  0  0  0  0  0  0  0
    0.8233   -7.2206  -12.6057 C   0  0  0  0  0  0  0  0  0  0  0  0
    4.5102   -6.5571   -7.0288 H   0  0  0  0  0  0  0  0  0  0  0  0
    4.6710   -5.3200   -8.2875 H   0  0  0  0  0  0  0  0  0  0  0  0
    5.9177   -6.5682   -8.1080 H   0  0  0  0  0  0  0  0  0  0  0  0
    3.0085   -7.0476   -8.9621 H   0  0  0  0  0  0  0  0  0  0  0  0
    4.1990   -8.3241   -8.7131 H   0  0  0  0  0  0  0  0  0  0  0  0
    4.3724   -6.0735  -10.8305 H   0  0  0  0  0  0  0  0  0  0  0  0
    5.2669   -9.0194  -10.7922 H   0  0  0  0  0  0  0  0  0  0  0  0
    5.1102   -6.7500  -12.8170 H   0  0  0  0  0  0  0  0  0  0  0  0
    4.8688   -8.4366  -13.2384 H   0  0  0  0  0  0  0  0  0  0  0  0
    7.5431   -7.2048  -12.3620 H   0  0  0  0  0  0  0  0  0  0  0  0
    6.8606  -10.0057  -13.3773 H   0  0  0  0  0  0  0  0  0  0  0  0
    7.4013   -9.5775  -11.7438 H   0  0  0  0  0  0  0  0  0  0  0  0
    8.5023   -9.4000  -13.1017 H   0  0  0  0  0  0  0  0  0  0  0  0
    6.5894   -8.1049  -15.1194 H   0  0  0  0  0  0  0  0  0  0  0  0
    9.0784   -6.9136  -14.6855 H   0  0  0  0  0  0  0  0  0  0  0  0
    7.1588   -5.7277  -15.8722 H   0  0  0  0  0  0  0  0  0  0  0  0
    6.7741   -4.2706  -13.5522 H   0  0  0  0  0  0  0  0  0  0  0  0
    9.7500   -2.8127  -13.6648 H   0  0  0  0  0  0  0  0  0  0  0  0
    7.5235   -3.2120  -11.6868 H   0  0  0  0  0  0  0  0  0  0  0  0
    5.7518   -1.8048  -12.1123 H   0  0  0  0  0  0  0  0  0  0  0  0
    4.8719    0.4630  -12.5541 H   0  0  0  0  0  0  0  0  0  0  0  0
    6.4193    0.9752  -13.1970 H   0  0  0  0  0  0  0  0  0  0  0  0
    6.2827   -0.7124  -15.0156 H   0  0  0  0  0  0  0  0  0  0  0  0
    3.4725   -1.2925  -13.9446 H   0  0  0  0  0  0  0  0  0  0  0  0
    4.8428   -2.4078  -13.9268 H   0  0  0  0  0  0  0  0  0  0  0  0
    4.1630   -1.8952  -15.4651 H   0  0  0  0  0  0  0  0  0  0  0  0
    3.8414    1.1164  -14.8312 H   0  0  0  0  0  0  0  0  0  0  0  0
    4.5571    0.4525  -16.3123 H   0  0  0  0  0  0  0  0  0  0  0  0
    5.4680    1.6122  -15.3350 H   0  0  0  0  0  0  0  0  0  0  0  0
    7.8493    1.1169  -11.7043 H   0  0  0  0  0  0  0  0  0  0  0  0
    8.5794    0.3570  -10.2894 H   0  0  0  0  0  0  0  0  0  0  0  0
    7.1340    1.4357  -10.1430 H   0  0  0  0  0  0  0  0  0  0  0  0
    7.2928   -1.5933   -7.8465 H   0  0  0  0  0  0  0  0  0  0  0  0
    4.9177   -2.1223   -7.6838 H   0  0  0  0  0  0  0  0  0  0  0  0
    5.4657   -0.9953   -6.4572 H   0  0  0  0  0  0  0  0  0  0  0  0
    4.3628    0.8964   -7.6355 H   0  0  0  0  0  0  0  0  0  0  0  0
    3.2920   -1.2149   -9.5703 H   0  0  0  0  0  0  0  0  0  0  0  0
    4.3140    0.1826   -9.9792 H   0  0  0  0  0  0  0  0  0  0  0  0
    2.6807    0.4386   -9.4078 H   0  0  0  0  0  0  0  0  0  0  0  0
    2.5868   -1.5065   -6.9990 H   0  0  0  0  0  0  0  0  0  0  0  0
    2.0314    0.1719   -7.1085 H   0  0  0  0  0  0  0  0  0  0  0  0
    3.1844   -0.2927   -5.8521 H   0  0  0  0  0  0  0  0  0  0  0  0
    6.4763    1.2247   -7.8793 H   0  0  0  0  0  0  0  0  0  0  0  0
    9.8673    2.1716   -7.1341 H   0  0  0  0  0  0  0  0  0  0  0  0
    7.3803    3.1669   -8.6266 H   0  0  0  0  0  0  0  0  0  0  0  0
    8.9542    2.8106   -9.3324 H   0  0  0  0  0  0  0  0  0  0  0  0
    8.7796    4.1250   -8.1606 H   0  0  0  0  0  0  0  0  0  0  0  0
    8.8413    2.7597   -5.2419 H   0  0  0  0  0  0  0  0  0  0  0  0
    5.4018    3.0857   -4.2686 H   0  0  0  0  0  0  0  0  0  0  0  0
    7.9207    4.8550   -4.2757 H   0  0  0  0  0  0  0  0  0  0  0  0
    6.3591    5.2193   -3.5338 H   0  0  0  0  0  0  0  0  0  0  0  0
    6.5217    5.2052   -5.2964 H   0  0  0  0  0  0  0  0  0  0  0  0
    7.6385    1.6186   -3.5575 H   0  0  0  0  0  0  0  0  0  0  0  0
    8.4220    1.4514   -1.4049 H   0  0  0  0  0  0  0  0  0  0  0  0
    6.7316    2.9732    0.6575 H   0  0  0  0  0  0  0  0  0  0  0  0
    8.2662    3.5186    0.0054 H   0  0  0  0  0  0  0  0  0  0  0  0
    7.8189    1.0341    1.7411 H   0  0  0  0  0  0  0  0  0  0  0  0
   10.5678    2.2227    1.2147 H   0  0  0  0  0  0  0  0  0  0  0  0
    9.9072    1.0391    0.0823 H   0  0  0  0  0  0  0  0  0  0  0  0
   10.1180    0.6089    1.7749 H   0  0  0  0  0  0  0  0  0  0  0  0
    9.1068    3.7229    2.4440 H   0  0  0  0  0  0  0  0  0  0  0  0
    8.9333    2.3284    3.5234 H   0  0  0  0  0  0  0  0  0  0  0  0
    7.4965    3.1916    2.9526 H   0  0  0  0  0  0  0  0  0  0  0  0
    5.6787    0.7252   -0.4037 H   0  0  0  0  0  0  0  0  0  0  0  0
    6.2788   -2.7076   -0.9533 H   0  0  0  0  0  0  0  0  0  0  0  0
    4.1379   -1.8303    0.3230 H   0  0  0  0  0  0  0  0  0  0  0  0
    2.1166   -1.5903   -2.1148 H   0  0  0  0  0  0  0  0  0  0  0  0
    1.9672   -1.9089    0.2014 H   0  0  0  0  0  0  0  0  0  0  0  0
    0.7906   -0.7306   -0.3015 H   0  0  0  0  0  0  0  0  0  0  0  0
    3.3342   -0.1807    1.2946 H   0  0  0  0  0  0  0  0  0  0  0  0
    1.2035    1.9333    0.8797 H   0  0  0  0  0  0  0  0  0  0  0  0
    2.5630    1.8158   -0.2306 H   0  0  0  0  0  0  0  0  0  0  0  0
    2.8706    2.0824    1.4581 H   0  0  0  0  0  0  0  0  0  0  0  0
    0.3860    0.0026    2.0750 H   0  0  0  0  0  0  0  0  0  0  0  0
    1.7744    0.3564    3.1128 H   0  0  0  0  0  0  0  0  0  0  0  0
    1.4928   -1.2989    2.5487 H   0  0  0  0  0  0  0  0  0  0  0  0
    4.2364    1.2022   -2.1944 H   0  0  0  0  0  0  0  0  0  0  0  0
    2.9430    2.4161   -2.1921 H   0  0  0  0  0  0  0  0  0  0  0  0
    3.3235    1.5675   -3.6884 H   0  0  0  0  0  0  0  0  0  0  0  0
    0.8585    1.5958   -3.2958 H   0  0  0  0  0  0  0  0  0  0  0  0
    6.2231   -1.3101    1.8029 H   0  0  0  0  0  0  0  0  0  0  0  0
    5.9984   -4.2827    1.0782 H   0  0  0  0  0  0  0  0  0  0  0  0
    4.6816   -3.2599    1.6804 H   0  0  0  0  0  0  0  0  0  0  0  0
    6.0497   -3.6233    2.7198 H   0  0  0  0  0  0  0  0  0  0  0  0
    8.3910   -3.2048    0.7577 H   0  0  0  0  0  0  0  0  0  0  0  0
    8.2090   -2.6808    2.4396 H   0  0  0  0  0  0  0  0  0  0  0  0
    8.6025   -1.4980    1.2055 H   0  0  0  0  0  0  0  0  0  0  0  0
   11.0412   -4.4878  -12.4593 H   0  0  0  0  0  0  0  0  0  0  0  0
    9.9934   -2.3199  -10.5646 H   0  0  0  0  0  0  0  0  0  0  0  0
   11.2979   -2.1434  -11.7538 H   0  0  0  0  0  0  0  0  0  0  0  0
   11.4957   -3.2323  -10.3754 H   0  0  0  0  0  0  0  0  0  0  0  0
    8.7340   -4.6886  -10.4596 H   0  0  0  0  0  0  0  0  0  0  0  0
   10.3397   -5.4107  -10.2834 H   0  0  0  0  0  0  0  0  0  0  0  0
    9.2813   -5.9501  -11.5812 H   0  0  0  0  0  0  0  0  0  0  0  0
    4.8985   -7.4315  -16.0270 H   0  0  0  0  0  0  0  0  0  0  0  0
    2.7940   -6.2825  -14.3673 H   0  0  0  0  0  0  0  0  0  0  0  0
    2.6426   -4.8542  -16.2855 H   0  0  0  0  0  0  0  0  0  0  0  0
    1.2651   -5.9454  -16.3379 H   0  0  0  0  0  0  0  0  0  0  0  0
    3.8289   -6.4453  -17.9531 H   0  0  0  0  0  0  0  0  0  0  0  0
    2.4532   -5.5198  -18.5480 H   0  0  0  0  0  0  0  0  0  0  0  0
    2.2512   -7.2328  -18.1404 H   0  0  0  0  0  0  0  0  0  0  0  0
    1.9817  -10.5896  -14.0476 H   0  0  0  0  0  0  0  0  0  0  0  0
    0.9102  -10.4114  -15.4605 H   0  0  0  0  0  0  0  0  0  0  0  0
    0.2144  -10.1301  -12.5066 H   0  0  0  0  0  0  0  0  0  0  0  0
   -0.7332  -10.9315  -13.7666 H   0  0  0  0  0  0  0  0  0  0  0  0
   -1.4733   -8.4462  -13.0707 H   0  0  0  0  0  0  0  0  0  0  0  0
   -1.2963   -8.8004  -14.7990 H   0  0  0  0  0  0  0  0  0  0  0  0
    0.1916   -6.9459  -14.6506 H   0  0  0  0  0  0  0  0  0  0  0  0
    0.9919   -8.0189  -11.8756 H   0  0  0  0  0  0  0  0  0  0  0  0
    0.0225   -6.5797  -12.2206 H   0  0  0  0  0  0  0  0  0  0  0  0
    1.7362   -6.6246  -12.6384 H   0  0  0  0  0  0  0  0  0  0  0  0
  1  2  1  0  0  0  0
  1 86  1  0  0  0  0
  1 87  1  0  0  0  0
  1 88  1  0  0  0  0
  2  3  1  0  0  0  0
  2 89  1  0  0  0  0
  2 90  1  0  0  0  0
  3  4  2  0  0  0  0
  3 91  1  0  0  0  0
  4  5  1  0  0  0  0
  4 92  1  0  0  0  0
  5  6  1  0  0  0  0
  5 93  1  0  0  0  0
  5 94  1  0  0  0  0
  6  7  1  0  0  0  0
  6  8  1  0  0  0  0
  6 95  1  1  0  0  0
  7 96  1  0  0  0  0
  7 97  1  0  0  0  0
  7 98  1  0  0  0  0
  8  9  1  0  0  0  0
  8 99  1  1  0  0  0
  9100  1  0  0  0  0
 10 72  1  0  0  0  0
 10 11  1  0  0  0  0
 10  8  1  0  0  0  0
 10101  1  6  0  0  0
 11 12  1  0  0  0  0
 11102  1  0  0  0  0
 12 13  2  0  0  0  0
 12 14  1  0  0  0  0
 14 15  1  0  0  0  0
 14 69  1  0  0  0  0
 14103  1  6  0  0  0
 15 16  1  0  0  0  0
 15104  1  0  0  0  0
 16 17  2  0  0  0  0
 18 23  1  0  0  0  0
 18 19  1  0  0  0  0
 18 16  1  0  0  0  0
 18105  1  1  0  0  0
 19 20  1  0  0  0  0
 19106  1  0  0  0  0
 19107  1  0  0  0  0
 20 21  1  0  0  0  0
 20 22  1  0  0  0  0
 20108  1  0  0  0  0
 21109  1  0  0  0  0
 21110  1  0  0  0  0
 21111  1  0  0  0  0
 22112  1  0  0  0  0
 22113  1  0  0  0  0
 22114  1  0  0  0  0
 23 24  1  0  0  0  0
 23 25  1  0  0  0  0
 24115  1  0  0  0  0
 24116  1  0  0  0  0
 24117  1  0  0  0  0
 25 26  2  0  0  0  0
 27 32  1  0  0  0  0
 27 28  1  0  0  0  0
 27 25  1  0  0  0  0
 27118  1  1  0  0  0
 28 29  1  0  0  0  0
 28119  1  0  0  0  0
 28120  1  0  0  0  0
 29 30  1  0  0  0  0
 29 31  1  0  0  0  0
 29121  1  0  0  0  0
 30122  1  0  0  0  0
 30123  1  0  0  0  0
 30124  1  0  0  0  0
 31125  1  0  0  0  0
 31126  1  0  0  0  0
 31127  1  0  0  0  0
 32 33  1  0  0  0  0
 32128  1  0  0  0  0
 33 34  2  0  0  0  0
 33 35  1  0  0  0  0
 35 36  1  0  0  0  0
 35 37  1  0  0  0  0
 35129  1  1  0  0  0
 36130  1  0  0  0  0
 36131  1  0  0  0  0
 36132  1  0  0  0  0
 37 38  1  0  0  0  0
 37133  1  0  0  0  0
 38 39  2  0  0  0  0
 40 42  1  0  0  0  0
 40 41  1  0  0  0  0
 40 38  1  0  0  0  0
 40134  1  1  0  0  0
 41135  1  0  0  0  0
 41136  1  0  0  0  0
 41137  1  0  0  0  0
 42 43  1  0  0  0  0
 42138  1  0  0  0  0
 43 44  2  0  0  0  0
 43 45  1  0  0  0  0
 45 46  1  0  0  0  0
 45 50  1  0  0  0  0
 45139  1  6  0  0  0
 46 47  1  0  0  0  0
 46140  1  0  0  0  0
 46141  1  0  0  0  0
 47 48  1  0  0  0  0
 47 49  1  0  0  0  0
 47142  1  0  0  0  0
 48143  1  0  0  0  0
 48144  1  0  0  0  0
 48145  1  0  0  0  0
 49146  1  0  0  0  0
 49147  1  0  0  0  0
 49148  1  0  0  0  0
 50 51  1  0  0  0  0
 50149  1  0  0  0  0
 51 52  2  0  0  0  0
 53 66  1  0  0  0  0
 53 54  1  0  0  0  0
 53 51  1  0  0  0  0
 53150  1  6  0  0  0
 54 55  1  0  0  0  0
 54151  1  0  0  0  0
 55 56  2  0  0  0  0
 55 57  1  0  0  0  0
 57 58  1  0  0  0  0
 57 62  1  0  0  0  0
 57152  1  6  0  0  0
 58 59  1  0  0  0  0
 58153  1  0  0  0  0
 58154  1  0  0  0  0
 59 60  1  0  0  0  0
 59 61  1  0  0  0  0
 59155  1  0  0  0  0
 60156  1  0  0  0  0
 60157  1  0  0  0  0
 60158  1  0  0  0  0
 61159  1  0  0  0  0
 61160  1  0  0  0  0
 61161  1  0  0  0  0
 62 63  1  0  0  0  0
 62 64  1  0  0  0  0
 63162  1  0  0  0  0
 63163  1  0  0  0  0
 63164  1  0  0  0  0
 64 65  2  0  0  0  0
 64165  1  0  0  0  0
 66 67  1  0  0  0  0
 66 68  1  0  0  0  0
 66166  1  0  0  0  0
 67167  1  0  0  0  0
 67168  1  0  0  0  0
 67169  1  0  0  0  0
 68170  1  0  0  0  0
 68171  1  0  0  0  0
 68172  1  0  0  0  0
 69 70  1  0  0  0  0
 69 71  1  0  0  0  0
 69173  1  0  0  0  0
 70174  1  0  0  0  0
 70175  1  0  0  0  0
 70176  1  0  0  0  0
 71177  1  0  0  0  0
 71178  1  0  0  0  0
 71179  1  0  0  0  0
 72 73  2  0  0  0  0
 72 74  1  0  0  0  0
 74 75  1  0  0  0  0
 74180  1  0  0  0  0
 75 76  1  0  0  0  0
 75 78  1  0  0  0  0
 75181  1  1  0  0  0
 76 77  1  0  0  0  0
 76182  1  0  0  0  0
 76183  1  0  0  0  0
 77184  1  0  0  0  0
 77185  1  0  0  0  0
 77186  1  0  0  0  0
 78 79  2  0  0  0  0
 78 80  1  0  0  0  0
 80 81  1  0  0  0  0
 80 84  1  0  0  0  0
 81 82  1  0  0  0  0
 81187  1  0  0  0  0
 81188  1  0  0  0  0
 82 83  1  0  0  0  0
 82189  1  0  0  0  0
 82190  1  0  0  0  0
 83 84  1  0  0  0  0
 83191  1  0  0  0  0
 83192  1  0  0  0  0
 84 85  1  0  0  0  0
 84193  1  6  0  0  0
 85194  1  0  0  0  0
 85195  1  0  0  0  0
 85196  1  0  0  0  0
M  END
>  <Energy>
201.706

$$$$