3108
  -OEChem-03242010103D

 76 79  0     0  0  0  0  0  0999 V2000
    5.0685   -1.8310   -2.2478 O   0  0  0  0  0  0  0  0  0  0  0  0
    5.1909   -0.0906    2.2597 O   0  0  0  0  0  0  0  0  0  0  0  0
   -5.0698    1.8294   -2.2481 O   0  0  0  0  0  0  0  0  0  0  0  0
   -5.1895    0.0940    2.2616 O   0  0  0  0  0  0  0  0  0  0  0  0
   -0.5136   -2.9420    0.0026 N   0  0  0  0  0  0  0  0  0  0  0  0
    0.5136    2.9416    0.0019 N   0  0  0  0  0  0  0  0  0  0  0  0
    1.5964   -1.9105    0.0047 N   0  0  0  0  0  0  0  0  0  0  0  0
   -1.5964    1.9101    0.0029 N   0  0  0  0  0  0  0  0  0  0  0  0
    1.7580    0.4838    0.0039 N   0  0  0  0  0  0  0  0  0  0  0  0
   -1.7580   -0.4842    0.0037 N   0  0  0  0  0  0  0  0  0  0  0  0
    3.6868   -0.8508    0.0027 N   0  0  0  0  0  0  0  0  0  0  0  0
   -3.6869    0.8512    0.0025 N   0  0  0  0  0  0  0  0  0  0  0  0
    0.0570   -4.1272    0.6586 C   0  0  0  0  0  0  0  0  0  0  0  0
   -1.4416   -3.1940   -1.1057 C   0  0  0  0  0  0  0  0  0  0  0  0
   -0.0579    4.1269    0.6570 C   0  0  0  0  0  0  0  0  0  0  0  0
    1.4430    3.1934   -1.1053 C   0  0  0  0  0  0  0  0  0  0  0  0
   -1.0503   -5.0824    1.0985 C   0  0  0  0  0  0  0  0  0  0  0  0
   -2.5490   -4.1537   -0.6725 C   0  0  0  0  0  0  0  0  0  0  0  0
    1.0488    5.0822    1.0981 C   0  0  0  0  0  0  0  0  0  0  0  0
    2.5498    4.1532   -0.6709 C   0  0  0  0  0  0  0  0  0  0  0  0
   -1.9803   -5.4269   -0.0584 C   0  0  0  0  0  0  0  0  0  0  0  0
    1.9803    5.4265   -0.0578 C   0  0  0  0  0  0  0  0  0  0  0  0
    0.2547   -1.7712    0.0045 C   0  0  0  0  0  0  0  0  0  0  0  0
   -0.2547    1.7707    0.0031 C   0  0  0  0  0  0  0  0  0  0  0  0
    0.4134    0.5612    0.0037 C   0  0  0  0  0  0  0  0  0  0  0  0
   -0.4134   -0.5617    0.0040 C   0  0  0  0  0  0  0  0  0  0  0  0
    2.2786   -0.7562    0.0044 C   0  0  0  0  0  0  0  0  0  0  0  0
   -2.2786    0.7558    0.0032 C   0  0  0  0  0  0  0  0  0  0  0  0
    4.3342   -2.1471    0.0172 C   0  0  0  0  0  0  0  0  0  0  0  0
    4.5020    0.3469    0.0006 C   0  0  0  0  0  0  0  0  0  0  0  0
   -4.3336    2.1477    0.0161 C   0  0  0  0  0  0  0  0  0  0  0  0
   -4.5025   -0.3463    0.0024 C   0  0  0  0  0  0  0  0  0  0  0  0
    4.3728   -2.7244   -1.3876 C   0  0  0  0  0  0  0  0  0  0  0  0
    4.6198    0.8978    1.4116 C   0  0  0  0  0  0  0  0  0  0  0  0
   -4.3730    2.7234   -1.3894 C   0  0  0  0  0  0  0  0  0  0  0  0
   -4.6195   -0.8955    1.4141 C   0  0  0  0  0  0  0  0  0  0  0  0
    0.6298   -3.8413    1.5499 H   0  0  0  0  0  0  0  0  0  0  0  0
    0.7435   -4.6356   -0.0299 H   0  0  0  0  0  0  0  0  0  0  0  0
   -0.8781   -3.6409   -1.9354 H   0  0  0  0  0  0  0  0  0  0  0  0
   -1.9032   -2.2901   -1.5117 H   0  0  0  0  0  0  0  0  0  0  0  0
   -0.6316    3.8411    1.5477 H   0  0  0  0  0  0  0  0  0  0  0  0
   -0.7436    4.6352   -0.0325 H   0  0  0  0  0  0  0  0  0  0  0  0
    0.8803    3.6403   -1.9356 H   0  0  0  0  0  0  0  0  0  0  0  0
    1.9050    2.2895   -1.5108 H   0  0  0  0  0  0  0  0  0  0  0  0
   -0.6087   -5.9980    1.5072 H   0  0  0  0  0  0  0  0  0  0  0  0
   -1.6331   -4.6182    1.9042 H   0  0  0  0  0  0  0  0  0  0  0  0
   -3.1950   -3.6551    0.0611 H   0  0  0  0  0  0  0  0  0  0  0  0
   -3.1766   -4.4064   -1.5344 H   0  0  0  0  0  0  0  0  0  0  0  0
    0.6067    5.9979    1.5061 H   0  0  0  0  0  0  0  0  0  0  0  0
    1.6308    4.6183    1.9046 H   0  0  0  0  0  0  0  0  0  0  0  0
    3.1949    3.6548    0.0635 H   0  0  0  0  0  0  0  0  0  0  0  0
    3.1784    4.4058   -1.5321 H   0  0  0  0  0  0  0  0  0  0  0  0
   -1.4320   -5.9945   -0.8199 H   0  0  0  0  0  0  0  0  0  0  0  0
   -2.7964   -6.0655    0.2971 H   0  0  0  0  0  0  0  0  0  0  0  0
    1.4329    5.9939   -0.8200 H   0  0  0  0  0  0  0  0  0  0  0  0
    2.7959    6.0652    0.2986 H   0  0  0  0  0  0  0  0  0  0  0  0
    3.8394   -2.8399    0.7082 H   0  0  0  0  0  0  0  0  0  0  0  0
    5.3644   -2.0439    0.3803 H   0  0  0  0  0  0  0  0  0  0  0  0
    4.1056    1.1072   -0.6822 H   0  0  0  0  0  0  0  0  0  0  0  0
    5.5082    0.1092   -0.3669 H   0  0  0  0  0  0  0  0  0  0  0  0
   -5.3636    2.0453    0.3800 H   0  0  0  0  0  0  0  0  0  0  0  0
   -3.8380    2.8411    0.7060 H   0  0  0  0  0  0  0  0  0  0  0  0
   -5.5088   -0.1087   -0.3647 H   0  0  0  0  0  0  0  0  0  0  0  0
   -4.1069   -1.1077   -0.6797 H   0  0  0  0  0  0  0  0  0  0  0  0
    4.9001   -3.6836   -1.3852 H   0  0  0  0  0  0  0  0  0  0  0  0
    3.3694   -2.8816   -1.7946 H   0  0  0  0  0  0  0  0  0  0  0  0
    5.2706    1.7779    1.4180 H   0  0  0  0  0  0  0  0  0  0  0  0
    3.6469    1.1837    1.8229 H   0  0  0  0  0  0  0  0  0  0  0  0
   -4.8999    3.6829   -1.3876 H   0  0  0  0  0  0  0  0  0  0  0  0
   -3.3698    2.8797   -1.7974 H   0  0  0  0  0  0  0  0  0  0  0  0
   -5.2707   -1.7754    1.4220 H   0  0  0  0  0  0  0  0  0  0  0  0
   -3.6464   -1.1813    1.8249 H   0  0  0  0  0  0  0  0  0  0  0  0
    5.0825   -2.2382   -3.1307 H   0  0  0  0  0  0  0  0  0  0  0  0
    5.2606    0.3010    3.1470 H   0  0  0  0  0  0  0  0  0  0  0  0
   -5.0842    2.2355   -3.1314 H   0  0  0  0  0  0  0  0  0  0  0  0
   -5.2585   -0.2965    3.1494 H   0  0  0  0  0  0  0  0  0  0  0  0
  1 33  1  0  0  0  0
  1 73  1  0  0  0  0
  2 34  1  0  0  0  0
  2 74  1  0  0  0  0
  3 35  1  0  0  0  0
  3 75  1  0  0  0  0
  4 36  1  0  0  0  0
  4 76  1  0  0  0  0
  5 13  1  0  0  0  0
  5 14  1  0  0  0  0
  5 23  1  0  0  0  0
  6 15  1  0  0  0  0
  6 16  1  0  0  0  0
  6 24  1  0  0  0  0
  7 23  2  0  0  0  0
  7 27  1  0  0  0  0
  8 24  2  0  0  0  0
  8 28  1  0  0  0  0
  9 25  1  0  0  0  0
  9 27  2  0  0  0  0
 10 26  1  0  0  0  0
 10 28  2  0  0  0  0
 11 27  1  0  0  0  0
 11 29  1  0  0  0  0
 11 30  1  0  0  0  0
 12 28  1  0  0  0  0
 12 31  1  0  0  0  0
 12 32  1  0  0  0  0
 13 17  1  0  0  0  0
 13 37  1  0  0  0  0
 13 38  1  0  0  0  0
 14 18  1  0  0  0  0
 14 39  1  0  0  0  0
 14 40  1  0  0  0  0
 15 19  1  0  0  0  0
 15 41  1  0  0  0  0
 15 42  1  0  0  0  0
 16 20  1  0  0  0  0
 16 43  1  0  0  0  0
 16 44  1  0  0  0  0
 17 21  1  0  0  0  0
 17 45  1  0  0  0  0
 17 46  1  0  0  0  0
 18 21  1  0  0  0  0
 18 47  1  0  0  0  0
 18 48  1  0  0  0  0
 19 22  1  0  0  0  0
 19 49  1  0  0  0  0
 19 50  1  0  0  0  0
 20 22  1  0  0  0  0
 20 51  1  0  0  0  0
 20 52  1  0  0  0  0
 21 53  1  0  0  0  0
 21 54  1  0  0  0  0
 22 55  1  0  0  0  0
 22 56  1  0  0  0  0
 23 26  1  0  0  0  0
 24 25  1  0  0  0  0
 25 26  2  0  0  0  0
 29 33  1  0  0  0  0
 29 57  1  0  0  0  0
 29 58  1  0  0  0  0
 30 34  1  0  0  0  0
 30 59  1  0  0  0  0
 30 60  1  0  0  0  0
 31 35  1  0  0  0  0
 31 61  1  0  0  0  0
 31 62  1  0  0  0  0
 32 36  1  0  0  0  0
 32 63  1  0  0  0  0
 32 64  1  0  0  0  0
 33 65  1  0  0  0  0
 33 66  1  0  0  0  0
 34 67  1  0  0  0  0
 34 68  1  0  0  0  0
 35 69  1  0  0  0  0
 35 70  1  0  0  0  0
 36 71  1  0  0  0  0
 36 72  1  0  0  0  0
M  END
> <PUBCHEM_COMPOUND_CID>
3108

> <PUBCHEM_CONFORMER_RMSD>
1.2

> <PUBCHEM_CONFORMER_DIVERSEORDER>
1
6
7
4
5
3
2

> <PUBCHEM_MMFF94_PARTIAL_CHARGES>
34
1 -0.68
10 -0.62
11 -0.84
12 -0.84
13 0.37
14 0.37
15 0.37
16 0.37
2 -0.68
23 0.41
24 0.41
25 0.31
26 0.31
27 0.72
28 0.72
29 0.37
3 -0.68
30 0.37
31 0.37
32 0.37
33 0.28
34 0.28
35 0.28
36 0.28
4 -0.68
5 -0.84
6 -0.84
7 -0.62
73 0.4
74 0.4
75 0.4
76 0.4
8 -0.62
9 -0.62

> <PUBCHEM_EFFECTIVE_ROTOR_COUNT>
14.4

> <PUBCHEM_PHARMACOPHORE_FEATURES>
14
1 1 acceptor
1 1 donor
1 2 acceptor
1 2 donor
1 3 acceptor
1 3 donor
1 4 acceptor
1 4 donor
4 7 9 11 27 cation
4 8 10 12 28 cation
6 5 13 14 17 18 21 rings
6 6 15 16 19 20 22 rings
6 7 9 23 25 26 27 rings
6 8 10 24 25 26 28 rings

> <PUBCHEM_HEAVY_ATOM_COUNT>
36

> <PUBCHEM_ATOM_DEF_STEREO_COUNT>
0

> <PUBCHEM_ATOM_UDEF_STEREO_COUNT>
0

> <PUBCHEM_BOND_DEF_STEREO_COUNT>
0

> <PUBCHEM_BOND_UDEF_STEREO_COUNT>
0

> <PUBCHEM_ISOTOPIC_ATOM_COUNT>
0

> <PUBCHEM_COMPONENT_COUNT>
1

> <PUBCHEM_CACTVS_TAUTO_COUNT>
1

> <PUBCHEM_CONFORMER_ID>
00000C2400000001

> <PUBCHEM_MMFF94_ENERGY>
114.7264

> <PUBCHEM_FEATURE_SELFOVERLAP>
71.086

> <PUBCHEM_SHAPE_FINGERPRINT>
10190108 129 17765178084588229249
10675989 125 17182200441463828213
10930396 42 17906971216323479010
1100329 8 18338517567934562568
11227688 84 18267585694259610471
11578080 2 17130422604333158498
12058002 1 17343261534046830275
13140716 1 18050286173875601737
13642711 20 18049419479572053156
13911987 19 18190751833756119085
140371 6 18343308093327331120
14725015 67 18053092922815357666
14790565 3 18338803303640455245
14955137 171 18339378378502753225
15081414 286 18341619213391850464
15439362 3 18339630248233950213
15815584 197 18196940963772097159
15927050 60 18052272961475501389
19311894 1 18342736270003735847
19591789 44 18338801087384927254
20775438 99 17838298086379278885
21033648 29 18201141179441529425
21796203 349 17976017294593267979
23558518 356 17900534885006365306
23559900 14 17472403358396909883
283562 15 17980761541544168056
3178227 256 18409738357264031107
3886686 26 18050814957802800616

> <PUBCHEM_SHAPE_MULTIPOLES>
677.54
9.79
8.4
1.47
0
0
-0.02
0
-0.61
0
0.53
0
0
1.68

> <PUBCHEM_SHAPE_SELFOVERLAP>
1414.179

> <PUBCHEM_SHAPE_VOLUME>
376.4

> <PUBCHEM_COORDINATE_TYPE>
2
5
10

$$$$