56945303
  -OEChem-03242010103D

 40 42  0     0  0  0  0  0  0999 V2000
    1.7748    2.2080   -0.3887 O   0  0  0  0  0  0  0  0  0  0  0  0
    5.5906   -2.2872   -0.7221 O   0  0  0  0  0  0  0  0  0  0  0  0
    6.7004    2.1196    0.7395 O   0  0  0  0  0  0  0  0  0  0  0  0
   -0.2077   -3.1015   -0.5718 O   0  5  0  0  0  0  0  0  0  0  0  0
   -0.1812   -2.7042    1.5870 O   0  0  0  0  0  0  0  0  0  0  0  0
    1.1268   -0.0241   -0.0375 N   0  0  0  0  0  0  0  0  0  0  0  0
   -0.4491   -2.3630    0.4114 N   0  3  0  0  0  0  0  0  0  0  0  0
   -3.0528    0.2390   -0.0349 C   0  0  0  0  0  0  0  0  0  0  0  0
   -0.2699    0.0442   -0.0339 C   0  0  0  0  0  0  0  0  0  0  0  0
   -1.0486   -1.0920    0.1848 C   0  0  0  0  0  0  0  0  0  0  0  0
   -2.4400   -0.9947    0.1843 C   0  0  0  0  0  0  0  0  0  0  0  0
   -4.4960    0.3406   -0.0367 C   0  0  0  0  0  0  0  0  0  0  0  0
   -2.2741    1.3754   -0.2536 C   0  0  0  0  0  0  0  0  0  0  0  0
   -0.8826    1.2781   -0.2531 C   0  0  0  0  0  0  0  0  0  0  0  0
    3.4716    0.6370   -0.1335 C   0  0  0  0  0  0  0  0  0  0  0  0
    2.0382    1.0239   -0.2085 C   0  0  0  0  0  0  0  0  0  0  0  0
   -5.1775    0.6086    1.1504 C   0  0  0  0  0  0  0  0  0  0  0  0
   -5.2059    0.1705   -1.2252 C   0  0  0  0  0  0  0  0  0  0  0  0
    4.4250    1.5709    0.2719 C   0  0  0  0  0  0  0  0  0  0  0  0
    3.8632   -0.6594   -0.4677 C   0  0  0  0  0  0  0  0  0  0  0  0
   -6.5690    0.7066    1.1491 C   0  0  0  0  0  0  0  0  0  0  0  0
   -6.5973    0.2686   -1.2267 C   0  0  0  0  0  0  0  0  0  0  0  0
    5.2083   -1.0218   -0.3966 C   0  0  0  0  0  0  0  0  0  0  0  0
    5.7702    1.2084    0.3431 C   0  0  0  0  0  0  0  0  0  0  0  0
   -7.2789    0.5365   -0.0395 C   0  0  0  0  0  0  0  0  0  0  0  0
    6.1617   -0.0880    0.0089 C   0  0  0  0  0  0  0  0  0  0  0  0
   -3.0464   -1.8827    0.3552 H   0  0  0  0  0  0  0  0  0  0  0  0
   -2.7372    2.3441   -0.4276 H   0  0  0  0  0  0  0  0  0  0  0  0
   -0.3603    2.2051   -0.4370 H   0  0  0  0  0  0  0  0  0  0  0  0
    1.5019   -0.9452    0.1640 H   0  0  0  0  0  0  0  0  0  0  0  0
   -4.6396    0.7438    2.0858 H   0  0  0  0  0  0  0  0  0  0  0  0
   -4.6903   -0.0390   -2.1595 H   0  0  0  0  0  0  0  0  0  0  0  0
    4.1344    2.5836    0.5408 H   0  0  0  0  0  0  0  0  0  0  0  0
    3.1524   -1.3990   -0.8248 H   0  0  0  0  0  0  0  0  0  0  0  0
   -7.0998    0.9152    2.0734 H   0  0  0  0  0  0  0  0  0  0  0  0
   -7.1502    0.1362   -2.1521 H   0  0  0  0  0  0  0  0  0  0  0  0
   -8.3622    0.6128   -0.0407 H   0  0  0  0  0  0  0  0  0  0  0  0
    7.2084   -0.3773    0.0624 H   0  0  0  0  0  0  0  0  0  0  0  0
    4.8046   -2.8003   -0.9765 H   0  0  0  0  0  0  0  0  0  0  0  0
    7.5773    1.6990    0.7311 H   0  0  0  0  0  0  0  0  0  0  0  0
  1 16  2  0  0  0  0
  2 23  1  0  0  0  0
  2 39  1  0  0  0  0
  3 24  1  0  0  0  0
  3 40  1  0  0  0  0
  4  7  1  0  0  0  0
  5  7  2  0  0  0  0
  6  9  1  0  0  0  0
  6 16  1  0  0  0  0
  6 30  1  0  0  0  0
  7 10  1  0  0  0  0
  8 11  2  0  0  0  0
  8 12  1  0  0  0  0
  8 13  1  0  0  0  0
  9 10  2  0  0  0  0
  9 14  1  0  0  0  0
 10 11  1  0  0  0  0
 11 27  1  0  0  0  0
 12 17  2  0  0  0  0
 12 18  1  0  0  0  0
 13 14  2  0  0  0  0
 13 28  1  0  0  0  0
 14 29  1  0  0  0  0
 15 16  1  0  0  0  0
 15 19  2  0  0  0  0
 15 20  1  0  0  0  0
 17 21  1  0  0  0  0
 17 31  1  0  0  0  0
 18 22  2  0  0  0  0
 18 32  1  0  0  0  0
 19 24  1  0  0  0  0
 19 33  1  0  0  0  0
 20 23  2  0  0  0  0
 20 34  1  0  0  0  0
 21 25  2  0  0  0  0
 21 35  1  0  0  0  0
 22 25  1  0  0  0  0
 22 36  1  0  0  0  0
 23 26  1  0  0  0  0
 24 26  2  0  0  0  0
 25 37  1  0  0  0  0
 26 38  1  0  0  0  0
M  CHG  2   4  -1   7   1
M  END
> <PUBCHEM_COMPOUND_CID>
56945303

> <PUBCHEM_CONFORMER_RMSD>
0.8

> <PUBCHEM_CONFORMER_DIVERSEORDER>
1
6
5
3
4
7
8
2

> <PUBCHEM_MMFF94_PARTIAL_CHARGES>
38
1 -0.57
10 0.13
11 -0.15
13 -0.15
14 -0.15
15 0.09
16 0.54
17 -0.15
18 -0.15
19 -0.15
2 -0.53
20 -0.15
21 -0.15
22 -0.15
23 0.08
24 0.08
25 -0.15
26 -0.15
27 0.15
28 0.15
29 0.15
3 -0.53
30 0.37
31 0.15
32 0.15
33 0.15
34 0.15
35 0.15
36 0.15
37 0.15
38 0.15
39 0.45
4 -0.52
40 0.45
5 -0.52
6 -0.55
7 0.91
9 0.12

> <PUBCHEM_EFFECTIVE_ROTOR_COUNT>
5

> <PUBCHEM_PHARMACOPHORE_FEATURES>
10
1 1 acceptor
1 2 donor
1 3 donor
1 4 acceptor
1 4 anion
1 5 acceptor
1 6 donor
6 12 17 18 21 22 25 rings
6 15 19 20 23 24 26 rings
6 8 9 10 11 13 14 rings

> <PUBCHEM_HEAVY_ATOM_COUNT>
26

> <PUBCHEM_ATOM_DEF_STEREO_COUNT>
0

> <PUBCHEM_ATOM_UDEF_STEREO_COUNT>
0

> <PUBCHEM_BOND_DEF_STEREO_COUNT>
0

> <PUBCHEM_BOND_UDEF_STEREO_COUNT>
0

> <PUBCHEM_ISOTOPIC_ATOM_COUNT>
0

> <PUBCHEM_COMPONENT_COUNT>
1

> <PUBCHEM_CACTVS_TAUTO_COUNT>
10

> <PUBCHEM_CONFORMER_ID>
0364EA9700000001

> <PUBCHEM_MMFF94_ENERGY>
92.8101

> <PUBCHEM_FEATURE_SELFOVERLAP>
50.828

> <PUBCHEM_SHAPE_FINGERPRINT>
10 15 17822289124128205888
10835480 77 18270396226236768448
10906281 52 18199486487609157108
11315181 36 17632576076910580153
11524674 6 16443068318087930113
11578080 2 17201623683592487706
11991303 11 17603877740498405891
12236239 1 17917992767982714757
12838862 33 18263063522908392648
13533116 47 18059574659856453434
1361 2 17988365866983580182
14251764 18 17917711313948304925
14849402 71 18060139898685553313
14856354 85 14779555591163699353
15183329 4 18343584031742628286
15849732 13 17530966895102624732
15927050 60 18186517722179901235
19141452 34 18410856607290715902
20157964 124 18273496767337899830
21033648 29 17916293009121745520
21130935 74 18273497870612127927
21267235 1 18337961095424839228
21403212 168 18261105266670777859
21521721 280 18342460348149667579
21781051 124 17751105624417094731
21859007 373 17604409843616770036
22224240 67 18333733529214139347
23035841 295 12612751324387264649
23081809 10 17632577145492241133
23402539 116 18343016726914084141
23536379 177 17132116827497409637
23559900 14 18270675493083272320
23569917 315 18410581716774228887
23569943 247 18125162636708377579
3004659 81 18334014970010446510
3178227 256 18261404355677946641
335352 9 18409451392949779534
340366 18 17677057952623205020
38695281 34 18343584015054000055
404807 14 16121657742794801814
4073 2 18336548334610443178
5104073 3 18263924504831709656
5385378 56 18261958444839477723
5758199 1 18342461439514628233
59755656 215 18186802435455586719
59755656 520 18412538834543726031
6138700 20 18336266747378961759
6669772 16 18411138009042863151

> <PUBCHEM_SHAPE_MULTIPOLES>
495.76
18.96
2.28
0.99
2.43
1.51
0.09
-5.55
-0.1
-2.65
0.24
1.1
0.14
0.66

> <PUBCHEM_SHAPE_SELFOVERLAP>
1091.611

> <PUBCHEM_SHAPE_VOLUME>
265.6

> <PUBCHEM_COORDINATE_TYPE>
2
5
10

$$$$