56945423
  -OEChem-03242010103D

 49 51  0     0  0  0  0  0  0999 V2000
   -6.8820   -2.0954    0.7650 O   0  0  0  0  0  0  0  0  0  0  0  0
   -1.9036   -1.9985   -0.0508 O   0  0  0  0  0  0  0  0  0  0  0  0
   -5.9447    2.1024   -1.3421 O   0  0  0  0  0  0  0  0  0  0  0  0
   -7.7769    0.2742   -0.3557 O   0  0  0  0  0  0  0  0  0  0  0  0
   -0.2463    3.3416   -0.9939 O   0  5  0  0  0  0  0  0  0  0  0  0
   -0.3931    3.2965    1.1960 O   0  0  0  0  0  0  0  0  0  0  0  0
    8.2613   -1.5661   -1.1675 O   0  0  0  0  0  0  0  0  0  0  0  0
   -1.4208    0.3020   -0.0356 N   0  0  0  0  0  0  0  0  0  0  0  0
   -0.0264    2.7908    0.1098 N   0  3  0  0  0  0  0  0  0  0  0  0
    2.7576    0.3451    0.2470 C   0  0  0  0  0  0  0  0  0  0  0  0
    4.2012    0.3485    0.3446 C   0  0  0  0  0  0  0  0  0  0  0  0
   -0.0259    0.3362    0.0592 C   0  0  0  0  0  0  0  0  0  0  0  0
    0.6645    1.5462    0.1305 C   0  0  0  0  0  0  0  0  0  0  0  0
    2.0563    1.5507    0.2244 C   0  0  0  0  0  0  0  0  0  0  0  0
    2.0672   -0.8649    0.1754 C   0  0  0  0  0  0  0  0  0  0  0  0
    0.6755   -0.8694    0.0817 C   0  0  0  0  0  0  0  0  0  0  0  0
    4.9420   -0.6837   -0.2310 C   0  0  0  0  0  0  0  0  0  0  0  0
    4.8521    1.3840    1.0155 C   0  0  0  0  0  0  0  0  0  0  0  0
    6.3337   -0.6807   -0.1357 C   0  0  0  0  0  0  0  0  0  0  0  0
   -3.7078   -0.5338   -0.1554 C   0  0  0  0  0  0  0  0  0  0  0  0
   -2.2515   -0.8229   -0.0835 C   0  0  0  0  0  0  0  0  0  0  0  0
    6.2437    1.3870    1.1111 C   0  0  0  0  0  0  0  0  0  0  0  0
    6.9846    0.3547    0.5353 C   0  0  0  0  0  0  0  0  0  0  0  0
   -4.6276   -1.4569    0.3424 C   0  0  0  0  0  0  0  0  0  0  0  0
   -4.1548    0.6605   -0.7207 C   0  0  0  0  0  0  0  0  0  0  0  0
   -5.9941   -1.1856    0.2750 C   0  0  0  0  0  0  0  0  0  0  0  0
   -5.5214    0.9320   -0.7879 C   0  0  0  0  0  0  0  0  0  0  0  0
   -6.4411    0.0089   -0.2900 C   0  0  0  0  0  0  0  0  0  0  0  0
    7.1067   -1.7565   -0.7360 C   0  0  0  0  0  0  0  0  0  0  0  0
    6.5138   -3.1565   -0.8528 C   0  0  0  0  0  0  0  0  0  0  0  0
   -6.3418   -3.2904    1.3258 C   0  0  0  0  0  0  0  0  0  0  0  0
    2.5676    2.5105    0.2470 H   0  0  0  0  0  0  0  0  0  0  0  0
    2.5687   -1.8279    0.2210 H   0  0  0  0  0  0  0  0  0  0  0  0
    0.2241   -1.8491    0.0324 H   0  0  0  0  0  0  0  0  0  0  0  0
    4.4559   -1.4727   -0.7983 H   0  0  0  0  0  0  0  0  0  0  0  0
   -1.8650    1.2140   -0.0103 H   0  0  0  0  0  0  0  0  0  0  0  0
    4.3167    2.1916    1.5069 H   0  0  0  0  0  0  0  0  0  0  0  0
    6.7504    2.1886    1.6406 H   0  0  0  0  0  0  0  0  0  0  0  0
    8.0677    0.3713    0.6246 H   0  0  0  0  0  0  0  0  0  0  0  0
   -4.2296   -2.3665    0.7788 H   0  0  0  0  0  0  0  0  0  0  0  0
   -3.4674    1.3818   -1.1533 H   0  0  0  0  0  0  0  0  0  0  0  0
    5.9861   -3.2523   -1.8047 H   0  0  0  0  0  0  0  0  0  0  0  0
    5.8365   -3.3629   -0.0196 H   0  0  0  0  0  0  0  0  0  0  0  0
    7.3233   -3.8913   -0.8073 H   0  0  0  0  0  0  0  0  0  0  0  0
   -5.1714    2.6178   -1.6288 H   0  0  0  0  0  0  0  0  0  0  0  0
   -7.8970    1.1432   -0.7767 H   0  0  0  0  0  0  0  0  0  0  0  0
   -5.8058   -3.8827    0.5762 H   0  0  0  0  0  0  0  0  0  0  0  0
   -5.7303   -3.0814    2.2102 H   0  0  0  0  0  0  0  0  0  0  0  0
   -7.1881   -3.8982    1.6629 H   0  0  0  0  0  0  0  0  0  0  0  0
  1 26  1  0  0  0  0
  1 31  1  0  0  0  0
  2 21  2  0  0  0  0
  3 27  1  0  0  0  0
  3 45  1  0  0  0  0
  4 28  1  0  0  0  0
  4 46  1  0  0  0  0
  5  9  1  0  0  0  0
  6  9  2  0  0  0  0
  7 29  2  0  0  0  0
  8 12  1  0  0  0  0
  8 21  1  0  0  0  0
  8 36  1  0  0  0  0
  9 13  1  0  0  0  0
 10 11  1  0  0  0  0
 10 14  2  0  0  0  0
 10 15  1  0  0  0  0
 11 17  2  0  0  0  0
 11 18  1  0  0  0  0
 12 13  2  0  0  0  0
 12 16  1  0  0  0  0
 13 14  1  0  0  0  0
 14 32  1  0  0  0  0
 15 16  2  0  0  0  0
 15 33  1  0  0  0  0
 16 34  1  0  0  0  0
 17 19  1  0  0  0  0
 17 35  1  0  0  0  0
 18 22  2  0  0  0  0
 18 37  1  0  0  0  0
 19 23  2  0  0  0  0
 19 29  1  0  0  0  0
 20 21  1  0  0  0  0
 20 24  1  0  0  0  0
 20 25  2  0  0  0  0
 22 23  1  0  0  0  0
 22 38  1  0  0  0  0
 23 39  1  0  0  0  0
 24 26  2  0  0  0  0
 24 40  1  0  0  0  0
 25 27  1  0  0  0  0
 25 41  1  0  0  0  0
 26 28  1  0  0  0  0
 27 28  2  0  0  0  0
 29 30  1  0  0  0  0
 30 42  1  0  0  0  0
 30 43  1  0  0  0  0
 30 44  1  0  0  0  0
 31 47  1  0  0  0  0
 31 48  1  0  0  0  0
 31 49  1  0  0  0  0
M  CHG  2   5  -1   9   1
M  END
> <PUBCHEM_COMPOUND_CID>
56945423

> <PUBCHEM_CONFORMER_RMSD>
1

> <PUBCHEM_CONFORMER_DIVERSEORDER>
4
30
18
29
16
34
32
13
26
28
7
22
35
2
25
5
9
14
23
20
27
19
17
33
12
8
10
31
21
15
6
11
24
3
1

> <PUBCHEM_MMFF94_PARTIAL_CHARGES>
41
1 -0.36
12 0.12
13 0.13
14 -0.15
15 -0.15
16 -0.15
17 -0.15
18 -0.15
19 0.09
2 -0.57
20 0.09
21 0.54
22 -0.15
23 -0.15
24 -0.15
25 -0.15
26 0.08
27 0.08
28 0.08
29 0.42
3 -0.53
30 0.06
31 0.28
32 0.15
33 0.15
34 0.15
35 0.15
36 0.37
37 0.15
38 0.15
39 0.15
4 -0.53
40 0.15
41 0.15
45 0.45
46 0.45
5 -0.52
6 -0.52
7 -0.57
8 -0.55
9 0.91

> <PUBCHEM_EFFECTIVE_ROTOR_COUNT>
7

> <PUBCHEM_PHARMACOPHORE_FEATURES>
12
1 1 acceptor
1 2 acceptor
1 3 donor
1 4 donor
1 5 acceptor
1 5 anion
1 6 acceptor
1 7 acceptor
1 8 donor
6 10 12 13 14 15 16 rings
6 11 17 18 19 22 23 rings
6 20 24 25 26 27 28 rings

> <PUBCHEM_HEAVY_ATOM_COUNT>
31

> <PUBCHEM_ATOM_DEF_STEREO_COUNT>
0

> <PUBCHEM_ATOM_UDEF_STEREO_COUNT>
0

> <PUBCHEM_BOND_DEF_STEREO_COUNT>
0

> <PUBCHEM_BOND_UDEF_STEREO_COUNT>
0

> <PUBCHEM_ISOTOPIC_ATOM_COUNT>
0

> <PUBCHEM_COMPONENT_COUNT>
1

> <PUBCHEM_CACTVS_TAUTO_COUNT>
44

> <PUBCHEM_CONFORMER_ID>
0364EB0F00000004

> <PUBCHEM_MMFF94_ENERGY>
120.4619

> <PUBCHEM_FEATURE_SELFOVERLAP>
60.984

> <PUBCHEM_SHAPE_FINGERPRINT>
11646440 116 18272655692171081217
12107698 1 15267341829333817290
12120059 9 18267280140999853746
12166972 35 18041001777458412037
12516196 113 18341891921912775920
12645989 146 18341047527917918399
13383665 225 18335152994848369476
13533116 47 17846777417432342418
13685833 64 18411139164309158218
13782708 43 18115024237973115731
14294032 229 17533496729720208500
14344974 204 18122349236125783587
14856354 85 16370729240473118331
14933364 13 18409164424166512946
14955137 171 18341334495471764065
15131766 46 15121222322609368792
15183329 4 18335700511817588259
15198563 99 18188768332276998812
15419008 91 18263624277796500468
15510794 2 18411135852910751226
15849732 13 18343580767731027039
16087824 20 18265331700024072485
16090146 7 17241629263977254106
18335252 98 18411983594404526528
19315958 150 18131066091643091488
19841028 212 17896311429987561106
21130935 74 18272934967987873147
21236236 1 18129943377616168952
21267235 1 18410578396114532227
21279426 13 18409724032783188076
23559900 14 18129652118809147985
24771750 20 17757561016298518116
3004659 81 18113899368916147356
335352 9 18410289242248116493
3383291 50 18188490297658619843
4073 2 17967816097475534291
4107672 100 17749105539819992997
4144715 1 18189057662473540649
437815 12 18411135848747496705
59755656 215 18335981978795604110
9831232 110 18409170992010844246

> <PUBCHEM_SHAPE_MULTIPOLES>
586.92
23.86
3.18
1.01
1.24
0.22
0.03
-13.23
-1.77
-0.44
0.14
0.01
0.02
4.08

> <PUBCHEM_SHAPE_SELFOVERLAP>
1284.81

> <PUBCHEM_SHAPE_VOLUME>
317.7

> <PUBCHEM_COORDINATE_TYPE>
2
5
10

$$$$