369597
  -OEChem-03242010103D

 37 39  0     1  0  0  0  0  0999 V2000
   -0.6585   -0.7300   -0.0301 O   0  0  0  0  0  0  0  0  0  0  0  0
    0.5880    3.1558   -0.4522 O   0  0  0  0  0  0  0  0  0  0  0  0
    3.0367    2.4117   -0.0840 O   0  0  0  0  0  0  0  0  0  0  0  0
    3.7897   -2.2644    0.4792 O   0  0  0  0  0  0  0  0  0  0  0  0
   -1.5172    0.3604    0.3390 C   0  0  1  0  0  0  0  0  0  0  0  0
   -1.2328    1.5949   -0.5144 C   0  0  0  0  0  0  0  0  0  0  0  0
    1.1582    0.8965   -0.0714 C   0  0  0  0  0  0  0  0  0  0  0  0
    0.6725   -0.4095    0.0431 C   0  0  0  0  0  0  0  0  0  0  0  0
    0.2077    1.9971   -0.3328 C   0  0  0  0  0  0  0  0  0  0  0  0
   -2.9549   -0.0895    0.1862 C   0  0  0  0  0  0  0  0  0  0  0  0
    2.5292    1.1499    0.0174 C   0  0  0  0  0  0  0  0  0  0  0  0
    3.4148    0.0886    0.2081 C   0  0  0  0  0  0  0  0  0  0  0  0
    1.5648   -1.4689    0.2133 C   0  0  0  0  0  0  0  0  0  0  0  0
    2.9345   -1.2182    0.3008 C   0  0  0  0  0  0  0  0  0  0  0  0
   -3.9373    0.4153    1.0379 C   0  0  0  0  0  0  0  0  0  0  0  0
   -3.2962   -1.0080   -0.8063 C   0  0  0  0  0  0  0  0  0  0  0  0
    4.8852    0.3462    0.3069 C   0  0  0  0  0  0  0  0  0  0  0  0
   -5.2618    0.0011    0.8971 C   0  0  0  0  0  0  0  0  0  0  0  0
   -4.6208   -1.4220   -0.9470 C   0  0  0  0  0  0  0  0  0  0  0  0
   -5.6035   -0.9174   -0.0952 C   0  0  0  0  0  0  0  0  0  0  0  0
    4.3017   -2.8896   -0.6957 C   0  0  0  0  0  0  0  0  0  0  0  0
   -1.3347    0.5744    1.4027 H   0  0  0  0  0  0  0  0  0  0  0  0
   -1.8739    2.4292   -0.2089 H   0  0  0  0  0  0  0  0  0  0  0  0
   -1.3913    1.3981   -1.5812 H   0  0  0  0  0  0  0  0  0  0  0  0
    1.1929   -2.4879    0.2890 H   0  0  0  0  0  0  0  0  0  0  0  0
   -3.6838    1.1330    1.8135 H   0  0  0  0  0  0  0  0  0  0  0  0
   -2.5526   -1.4060   -1.4911 H   0  0  0  0  0  0  0  0  0  0  0  0
    5.0934    1.1443    1.0283 H   0  0  0  0  0  0  0  0  0  0  0  0
    5.4481   -0.5227    0.6618 H   0  0  0  0  0  0  0  0  0  0  0  0
    5.2889    0.6235   -0.6724 H   0  0  0  0  0  0  0  0  0  0  0  0
   -6.0272    0.3945    1.5596 H   0  0  0  0  0  0  0  0  0  0  0  0
   -4.8879   -2.1347   -1.7217 H   0  0  0  0  0  0  0  0  0  0  0  0
   -6.6350   -1.2391   -0.2055 H   0  0  0  0  0  0  0  0  0  0  0  0
    3.9890    2.3994   -0.2649 H   0  0  0  0  0  0  0  0  0  0  0  0
    4.8238   -2.1658   -1.3294 H   0  0  0  0  0  0  0  0  0  0  0  0
    3.4908   -3.3628   -1.2584 H   0  0  0  0  0  0  0  0  0  0  0  0
    5.0122   -3.6626   -0.3902 H   0  0  0  0  0  0  0  0  0  0  0  0
  1  5  1  0  0  0  0
  1  8  1  0  0  0  0
  2  9  2  0  0  0  0
  3 11  1  0  0  0  0
  3 34  1  0  0  0  0
  4 14  1  0  0  0  0
  4 21  1  0  0  0  0
  5  6  1  0  0  0  0
  5 10  1  0  0  0  0
  5 22  1  0  0  0  0
  6  9  1  0  0  0  0
  6 23  1  0  0  0  0
  6 24  1  0  0  0  0
  7  8  1  0  0  0  0
  7  9  1  0  0  0  0
  7 11  2  0  0  0  0
  8 13  2  0  0  0  0
 10 15  2  0  0  0  0
 10 16  1  0  0  0  0
 11 12  1  0  0  0  0
 12 14  2  0  0  0  0
 12 17  1  0  0  0  0
 13 14  1  0  0  0  0
 13 25  1  0  0  0  0
 15 18  1  0  0  0  0
 15 26  1  0  0  0  0
 16 19  2  0  0  0  0
 16 27  1  0  0  0  0
 17 28  1  0  0  0  0
 17 29  1  0  0  0  0
 17 30  1  0  0  0  0
 18 20  2  0  0  0  0
 18 31  1  0  0  0  0
 19 20  1  0  0  0  0
 19 32  1  0  0  0  0
 20 33  1  0  0  0  0
 21 35  1  0  0  0  0
 21 36  1  0  0  0  0
 21 37  1  0  0  0  0
M  END
> <PUBCHEM_COMPOUND_CID>
369597

> <PUBCHEM_CONFORMER_RMSD>
0.6

> <PUBCHEM_CONFORMER_DIVERSEORDER>
1
4
2
6
8
7
3
5

> <PUBCHEM_MMFF94_PARTIAL_CHARGES>
28
1 -0.36
10 -0.14
11 0.08
12 -0.14
13 -0.15
14 0.08
15 -0.15
16 -0.15
17 0.14
18 -0.15
19 -0.15
2 -0.57
20 -0.15
21 0.28
25 0.15
26 0.15
27 0.15
3 -0.53
31 0.15
32 0.15
33 0.15
34 0.45
4 -0.36
5 0.42
6 0.06
7 0.09
8 0.08
9 0.42

> <PUBCHEM_EFFECTIVE_ROTOR_COUNT>
2.6

> <PUBCHEM_PHARMACOPHORE_FEATURES>
7
1 1 acceptor
1 2 acceptor
1 3 donor
1 4 acceptor
6 1 5 6 7 8 9 rings
6 10 15 16 18 19 20 rings
6 7 8 11 12 13 14 rings

> <PUBCHEM_HEAVY_ATOM_COUNT>
21

> <PUBCHEM_ATOM_DEF_STEREO_COUNT>
0

> <PUBCHEM_ATOM_UDEF_STEREO_COUNT>
1

> <PUBCHEM_BOND_DEF_STEREO_COUNT>
0

> <PUBCHEM_BOND_UDEF_STEREO_COUNT>
0

> <PUBCHEM_ISOTOPIC_ATOM_COUNT>
0

> <PUBCHEM_COMPONENT_COUNT>
1

> <PUBCHEM_CACTVS_TAUTO_COUNT>
9

> <PUBCHEM_CONFORMER_ID>
0005A3BD00000001

> <PUBCHEM_MMFF94_ENERGY>
75.7652

> <PUBCHEM_FEATURE_SELFOVERLAP>
35.552

> <PUBCHEM_SHAPE_FINGERPRINT>
10411042 1 18265332807629015426
10622 236 17986647437968710367
10906281 52 18188502392597189264
10967382 1 18336545005978821696
11471102 20 18262517112436191397
11578080 2 17915712398026218697
11796584 16 15936678307328799569
12107183 9 17840036147774294953
12236239 1 18060421339238266363
12553582 1 18263357010450064851
12596602 18 17346598616245692826
13009979 54 18059586740977004353
13140716 1 18048596220488785272
13167823 11 18343301474819638171
13533116 47 18342737468546686467
13540713 4 18123454000750548856
13544653 18 18260268529674050869
13862211 1 18335133194436373274
14576447 43 18341607178439618286
14739800 52 17131261484454788608
14767858 380 18188228524281964518
14790565 3 17831306368900502572
14863182 85 18409733980539499062
15196674 1 18337671918954718193
15475509 84 17916591920912044841
15848702 151 18412263926297554591
17357779 13 17895179022603228341
17818456 19 17915755193006171633
1813 80 18188218623506244557
18222031 100 18411694366157538051
19141452 34 18272369733565037071
200 152 18341889710563475673
20028762 73 18272927206966658375
20281475 54 18343297076604023175
20645477 70 18261387875228697631
21065198 48 18202286905344222873
21267235 1 18410300215346296883
21279426 13 18189046504792363181
21641784 216 17749686107629399924
22182313 1 18189034456934500084
22224240 67 18270389616603554744
2255824 54 18193561288003103117
22950370 63 18411424972818323103
23402539 116 18410568479261873017
23559900 14 18336825398159712803
2871803 45 18113896031104261114
312423 11 18338248075948392433
314194 84 18412263969294927747
46194498 28 17458903859615368255
465052 167 18342183249571194750
474 4 18120372318048908969
5104073 3 18338793403719564448
5281201 14 17821725031311953637
573450 72 17775567542279658155
602551 16 15625656258193561037
7970288 3 18336542694833963827
9709674 26 18335143093761146523
9971528 1 18410572894256242249
9981440 41 17259051326140839689

> <PUBCHEM_SHAPE_MULTIPOLES>
408.69
11.17
2.64
0.85
7.37
0.4
-0.01
-5.57
-0.84
-3.07
0.61
0.57
-0.09
-0.42

> <PUBCHEM_SHAPE_SELFOVERLAP>
897.447

> <PUBCHEM_SHAPE_VOLUME>
220.9

> <PUBCHEM_COORDINATE_TYPE>
2
5
10

$$$$