5280682
  -OEChem-03242010103D

 41 43  0     0  0  0  0  0  0999 V2000
   -0.4069    0.7875    0.0903 O   0  0  0  0  0  0  0  0  0  0  0  0
    0.7527   -2.7027    0.3389 O   0  0  0  0  0  0  0  0  0  0  0  0
   -4.6972    2.7991   -0.1891 O   0  0  0  0  0  0  0  0  0  0  0  0
   -4.4172   -1.9337    0.0696 O   0  0  0  0  0  0  0  0  0  0  0  0
   -2.0150   -2.9541    0.2276 O   0  0  0  0  0  0  0  0  0  0  0  0
    5.8843    0.8721    0.3548 O   0  0  0  0  0  0  0  0  0  0  0  0
    4.6350    0.4271   -2.0881 O   0  0  0  0  0  0  0  0  0  0  0  0
   -2.3784   -0.6284    0.0834 C   0  0  0  0  0  0  0  0  0  0  0  0
    0.3936   -0.3411    0.1705 C   0  0  0  0  0  0  0  0  0  0  0  0
   -1.7671    0.6228    0.0427 C   0  0  0  0  0  0  0  0  0  0  0  0
   -0.0702   -1.6029    0.2261 C   0  0  0  0  0  0  0  0  0  0  0  0
    1.8320   -0.0235    0.2152 C   0  0  0  0  0  0  0  0  0  0  0  0
   -1.5349   -1.8294    0.1823 C   0  0  0  0  0  0  0  0  0  0  0  0
   -3.7705   -0.7355    0.0327 C   0  0  0  0  0  0  0  0  0  0  0  0
   -2.5453    1.7771   -0.0485 C   0  0  0  0  0  0  0  0  0  0  0  0
   -3.9355    1.6743   -0.0997 C   0  0  0  0  0  0  0  0  0  0  0  0
   -4.5467    0.4204   -0.0592 C   0  0  0  0  0  0  0  0  0  0  0  0
    2.5669    0.0540   -0.9681 C   0  0  0  0  0  0  0  0  0  0  0  0
    2.4597    0.1996    1.4411 C   0  0  0  0  0  0  0  0  0  0  0  0
    3.9283    0.3544   -0.9256 C   0  0  0  0  0  0  0  0  0  0  0  0
    3.8211    0.5000    1.4836 C   0  0  0  0  0  0  0  0  0  0  0  0
    4.5554    0.5775    0.3002 C   0  0  0  0  0  0  0  0  0  0  0  0
    1.1225   -3.1878   -0.9376 C   0  0  0  0  0  0  0  0  0  0  0  0
   -6.1121    2.6226   -0.2374 C   0  0  0  0  0  0  0  0  0  0  0  0
    6.2457    2.2505    0.2941 C   0  0  0  0  0  0  0  0  0  0  0  0
   -2.0715    2.7550   -0.0801 H   0  0  0  0  0  0  0  0  0  0  0  0
   -5.6223    0.2803   -0.0955 H   0  0  0  0  0  0  0  0  0  0  0  0
    2.0851   -0.1075   -1.9299 H   0  0  0  0  0  0  0  0  0  0  0  0
    1.9003    0.1431    2.3719 H   0  0  0  0  0  0  0  0  0  0  0  0
    4.3032    0.6721    2.4422 H   0  0  0  0  0  0  0  0  0  0  0  0
   -3.7808   -2.6625    0.1283 H   0  0  0  0  0  0  0  0  0  0  0  0
    1.6985   -2.4617   -1.5146 H   0  0  0  0  0  0  0  0  0  0  0  0
    0.2431   -3.5016   -1.5113 H   0  0  0  0  0  0  0  0  0  0  0  0
    1.7543   -4.0695   -0.7921 H   0  0  0  0  0  0  0  0  0  0  0  0
    5.5668    0.6043   -1.8728 H   0  0  0  0  0  0  0  0  0  0  0  0
   -6.4190    2.0717   -1.1330 H   0  0  0  0  0  0  0  0  0  0  0  0
   -6.5596    3.6195   -0.3075 H   0  0  0  0  0  0  0  0  0  0  0  0
   -6.4928    2.1661    0.6826 H   0  0  0  0  0  0  0  0  0  0  0  0
    5.8491    2.7872    1.1617 H   0  0  0  0  0  0  0  0  0  0  0  0
    5.8788    2.7085   -0.6299 H   0  0  0  0  0  0  0  0  0  0  0  0
    7.3368    2.3195    0.3091 H   0  0  0  0  0  0  0  0  0  0  0  0
  1  9  1  0  0  0  0
  1 10  1  0  0  0  0
  2 11  1  0  0  0  0
  2 23  1  0  0  0  0
  3 16  1  0  0  0  0
  3 24  1  0  0  0  0
  4 14  1  0  0  0  0
  4 31  1  0  0  0  0
  5 13  2  0  0  0  0
  6 22  1  0  0  0  0
  6 25  1  0  0  0  0
  7 20  1  0  0  0  0
  7 35  1  0  0  0  0
  8 10  1  0  0  0  0
  8 13  1  0  0  0  0
  8 14  2  0  0  0  0
  9 11  2  0  0  0  0
  9 12  1  0  0  0  0
 10 15  2  0  0  0  0
 11 13  1  0  0  0  0
 12 18  2  0  0  0  0
 12 19  1  0  0  0  0
 14 17  1  0  0  0  0
 15 16  1  0  0  0  0
 15 26  1  0  0  0  0
 16 17  2  0  0  0  0
 17 27  1  0  0  0  0
 18 20  1  0  0  0  0
 18 28  1  0  0  0  0
 19 21  2  0  0  0  0
 19 29  1  0  0  0  0
 20 22  2  0  0  0  0
 21 22  1  0  0  0  0
 21 30  1  0  0  0  0
 23 32  1  0  0  0  0
 23 33  1  0  0  0  0
 23 34  1  0  0  0  0
 24 36  1  0  0  0  0
 24 37  1  0  0  0  0
 24 38  1  0  0  0  0
 25 39  1  0  0  0  0
 25 40  1  0  0  0  0
 25 41  1  0  0  0  0
M  END
> <PUBCHEM_COMPOUND_CID>
5280682

> <PUBCHEM_CONFORMER_RMSD>
0.8

> <PUBCHEM_CONFORMER_DIVERSEORDER>
1
6
4
3
8
7
5
2

> <PUBCHEM_MMFF94_PARTIAL_CHARGES>
32
1 -0.16
10 0.08
11 0.09
12 0.03
13 0.47
14 0.08
15 -0.15
16 0.08
17 -0.15
18 -0.15
19 -0.15
2 -0.36
20 0.08
21 -0.15
22 0.08
23 0.28
24 0.28
25 0.28
26 0.15
27 0.15
28 0.15
29 0.15
3 -0.36
30 0.15
31 0.45
35 0.45
4 -0.53
5 -0.57
6 -0.36
7 -0.53
8 0.09
9 0.05

> <PUBCHEM_EFFECTIVE_ROTOR_COUNT>
4

> <PUBCHEM_PHARMACOPHORE_FEATURES>
10
1 1 acceptor
1 2 acceptor
1 3 acceptor
1 4 donor
1 5 acceptor
1 6 acceptor
1 7 donor
6 1 8 9 10 11 13 rings
6 12 18 19 20 21 22 rings
6 8 10 14 15 16 17 rings

> <PUBCHEM_HEAVY_ATOM_COUNT>
25

> <PUBCHEM_ATOM_DEF_STEREO_COUNT>
0

> <PUBCHEM_ATOM_UDEF_STEREO_COUNT>
0

> <PUBCHEM_BOND_DEF_STEREO_COUNT>
0

> <PUBCHEM_BOND_UDEF_STEREO_COUNT>
0

> <PUBCHEM_ISOTOPIC_ATOM_COUNT>
0

> <PUBCHEM_COMPONENT_COUNT>
1

> <PUBCHEM_CACTVS_TAUTO_COUNT>
14

> <PUBCHEM_CONFORMER_ID>
005093AA00000001

> <PUBCHEM_MMFF94_ENERGY>
102.3338

> <PUBCHEM_FEATURE_SELFOVERLAP>
50.781

> <PUBCHEM_SHAPE_FINGERPRINT>
10411042 1 17689153830876797027
10498660 4 18412829057735939088
12107183 9 18045205064915164562
12236239 1 17749102327337104512
12390115 104 18342468002235342497
12403259 415 18343591741351394862
12633257 1 15357699716854025352
12730499 353 18272375222353815299
12788726 201 17318468844311658234
12916748 109 18337114565760395554
13140716 1 17975978984054848715
13540713 4 18266192655924104283
13540713 5 18265594517345844403
14341114 328 16877951546061419512
14790565 3 18408889550692485333
15196674 1 18410291380751705819
1601671 61 18334013869729101244
16752209 62 18337670935644915610
17980427 23 17967533501485738829
18608769 82 18411984693979516467
20554085 129 17987214695504160674
20645477 70 16773530905992827830
21033648 29 18058716018347637256
21279426 13 18271814467118405814
22122407 14 15864063291319043631
22149856 69 18047496456597695041
22182313 1 18266763336649801287
22393880 68 18130791131103608207
23366157 5 17970348109503736570
23402539 116 18341606062196221860
23557571 272 18272090551889969984
23559900 14 18269839722686074718
25147074 1 18263907879198383715
2916195 48 18271520996387727712
3472631 163 18408885152867325724
34934 24 18339918221890714045
469060 322 18264790881698270777
495365 180 17773863225466987034
5104073 3 18261678069379598531
5265222 85 18196661916216916542
56616090 163 18339368461381049135
59682541 52 16916225442660893020
59755656 215 18267869372147874670
6327066 14 18408879624975351405
7808743 9 18408881849667989048
9981440 41 18333455352171653307

> <PUBCHEM_SHAPE_MULTIPOLES>
473.4
13.02
3.08
1.05
3.67
1.34
0.16
-11.55
0.74
-2.75
0.25
1.53
-0.02
0.72

> <PUBCHEM_SHAPE_SELFOVERLAP>
1040.704

> <PUBCHEM_SHAPE_VOLUME>
255.4

> <PUBCHEM_COORDINATE_TYPE>
2
5
10

$$$$