3
 OpenBabel03292021413D

190190  0  0  1  0  0  0  0  0999 V2000
    2.3396   -2.4573    0.2912 C   0  0  0  0  0  0  0  0  0  0  0  0
    3.1518   -3.2371    1.3048 C   0  0  0  0  0  0  0  0  0  0  0  0
    3.0984   -2.9921    2.6387 C   0  0  0  0  0  0  0  0  0  0  0  0
    3.7583   -3.6716    3.8757 C   0  0  0  0  0  0  0  0  0  0  0  0
    4.5776   -2.7353    4.9178 C   0  0  1  0  0  0  0  0  0  0  0  0
    4.0691   -1.3154    4.9601 C   0  0  0  0  0  0  0  0  0  0  0  0
    4.9042   -3.1907    6.4886 C   0  0  1  0  0  0  0  0  0  0  0  0
    4.5404   -4.5289    6.8195 O   0  0  0  0  0  0  0  0  0  0  0  0
    5.5429   -2.0423    7.7695 C   0  0  1  0  0  0  0  0  0  0  0  0
    4.7195   -2.2987    9.6398 C   0  0  0  0  0  0  0  0  0  0  0  0
    5.5024   -3.0920   10.3207 O   0  0  0  0  0  0  0  0  0  0  0  0
    3.4426   -1.9940   10.9455 N   0  0  0  0  0  0  0  0  0  0  0  0
    2.0100   -1.0679   11.9992 C   0  0  1  0  0  0  0  0  0  0  0  0
    1.4080   -1.4396   13.7532 C   0  0  0  0  0  0  0  0  0  0  0  0
    0.9913   -0.6354   15.2391 C   0  0  0  0  0  0  0  0  0  0  0  0
    0.7465    0.3984   12.0515 C   0  0  0  0  0  0  0  0  0  0  0  0
   -0.4121    0.1783   11.6133 O   0  0  0  0  0  0  0  0  0  0  0  0
    0.8350    1.6799   12.9015 N   0  0  0  0  0  0  0  0  0  0  0  0
   -0.2937    2.1957   13.7398 C   0  0  0  0  0  0  0  0  0  0  0  0
    1.4157    2.9442   12.3326 C   0  0  0  0  0  0  0  0  0  0  0  0
    2.8075    2.7623   11.9034 C   0  0  0  0  0  0  0  0  0  0  0  0
    3.3327    3.3806   11.0164 O   0  0  0  0  0  0  0  0  0  0  0  0
    3.3895    1.7285   12.5987 N   0  0  0  0  0  0  0  0  0  0  0  0
    3.1729    1.5407   14.0653 C   0  0  0  0  0  0  0  0  0  0  0  0
    3.8082    0.6633   11.6861 C   0  0  2  0  0  0  0  0  0  0  0  0
    2.9659    0.3908   10.1696 C   0  0  0  0  0  0  0  0  0  0  0  0
    1.6117    0.8712    9.5183 C   0  0  0  0  0  0  0  0  0  0  0  0
    1.9471    1.4876    8.1742 C   0  0  0  0  0  0  0  0  0  0  0  0
    0.5909   -0.3134    9.1692 C   0  0  0  0  0  0  0  0  0  0  0  0
    4.5488   -0.3639   12.7019 C   0  0  0  0  0  0  0  0  0  0  0  0
    3.9992   -1.1560   13.4839 O   0  0  0  0  0  0  0  0  0  0  0  0
    5.8648   -0.1817   13.0224 N   0  0  0  0  0  0  0  0  0  0  0  0
    6.7898    0.7243   12.4037 C   0  0  2  0  0  0  0  0  0  0  0  0
    6.4384    2.2268   12.4463 C   0  0  0  0  0  0  0  0  0  0  0  0
    7.4159    3.1262   11.7122 C   0  0  0  0  0  0  0  0  0  0  0  0
    6.1511    2.7573   13.8428 C   0  0  0  0  0  0  0  0  0  0  0  0
    6.9054    0.1625   10.9710 C   0  0  0  0  0  0  0  0  0  0  0  0
    6.1674    0.4427   10.0262 O   0  0  0  0  0  0  0  0  0  0  0  0
    7.7421   -0.8596   10.7247 N   0  0  0  0  0  0  0  0  0  0  0  0
    9.0806   -0.9675   11.2532 C   0  0  1  0  0  0  0  0  0  0  0  0
    9.7842   -1.9157   10.2856 C   0  0  0  0  0  0  0  0  0  0  0  0
    9.3416   -3.3868   10.3247 C   0  0  0  0  0  0  0  0  0  0  0  0
   10.0425   -4.1307    9.1987 C   0  0  0  0  0  0  0  0  0  0  0  0
    9.7328   -4.0383   11.6380 C   0  0  0  0  0  0  0  0  0  0  0  0
    9.6684    0.4783   11.4416 C   0  0  0  0  0  0  0  0  0  0  0  0
    9.6120    1.0825   12.5184 O   0  0  0  0  0  0  0  0  0  0  0  0
   10.1159    1.2363   10.4047 N   0  0  0  0  0  0  0  0  0  0  0  0
   11.2297    0.7508    9.6259 C   0  0  1  0  0  0  0  0  0  0  0  0
   11.5202    1.7729    8.5545 C   0  0  0  0  0  0  0  0  0  0  0  0
   12.3652    0.1891   10.6202 C   0  0  0  0  0  0  0  0  0  0  0  0
   12.0687   -0.3125   11.7154 O   0  0  0  0  0  0  0  0  0  0  0  0
   13.6620   -0.0543   10.2757 N   0  0  0  0  0  0  0  0  0  0  0  0
   14.5889    0.8227    9.5590 C   0  0  2  0  0  0  0  0  0  0  0  0
   14.4333    2.2081   10.1701 C   0  0  0  0  0  0  0  0  0  0  0  0
   14.6201    0.8170    7.9752 C   0  0  0  0  0  0  0  0  0  0  0  0
   14.3203    1.8132    7.3150 O   0  0  0  0  0  0  0  0  0  0  0  0
   14.9806   -0.3792    7.3417 N   0  0  0  0  0  0  0  0  0  0  0  0
   16.3744   -0.7812    7.4844 C   0  0  0  0  0  0  0  0  0  0  0  0
   14.3440   -0.7090    6.0246 C   0  0  1  0  0  0  0  0  0  0  0  0
   12.8182   -0.8808    6.1287 C   0  0  0  0  0  0  0  0  0  0  0  0
   12.1475   -1.9237    7.0414 C   0  0  0  0  0  0  0  0  0  0  0  0
   12.1976   -3.3842    6.6828 C   0  0  0  0  0  0  0  0  0  0  0  0
   12.7580   -1.8687    8.3817 C   0  0  0  0  0  0  0  0  0  0  0  0
   14.8870    0.1861    4.8521 C   0  0  0  0  0  0  0  0  0  0  0  0
   16.1115    0.2875    4.6842 O   0  0  0  0  0  0  0  0  0  0  0  0
   14.1196    0.8402    3.9380 N   0  0  0  0  0  0  0  0  0  0  0  0
   12.6601    1.0878    3.8201 C   0  0  1  0  0  0  0  0  0  0  0  0
   12.4343    2.2496    2.8328 C   0  0  0  0  0  0  0  0  0  0  0  0
   12.9771    3.6299    3.2617 C   0  0  0  0  0  0  0  0  0  0  0  0
   12.5090    4.6739    2.2386 C   0  0  0  0  0  0  0  0  0  0  0  0
   12.4776    4.0068    4.6556 C   0  0  0  0  0  0  0  0  0  0  0  0
   11.9304   -0.2316    3.3700 C   0  0  0  0  0  0  0  0  0  0  0  0
   12.6083   -1.0868    2.8057 O   0  0  0  0  0  0  0  0  0  0  0  0
   10.4777   -0.3258    3.5059 N   0  0  0  0  0  0  0  0  0  0  0  0
   10.0630   -0.0414    2.1109 C   0  0  0  0  0  0  0  0  0  0  0  0
    9.6241   -1.6636    4.2992 C   0  0  1  0  0  0  0  0  0  0  0  0
   10.5676   -3.0858    3.5830 C   0  0  0  0  0  0  0  0  0  0  0  0
   10.7042   -3.1357    1.9933 C   0  0  0  0  0  0  0  0  0  0  0  0
   12.0988   -3.5303    3.8487 C   0  0  0  0  0  0  0  0  0  0  0  0
    8.0543   -1.3180    5.4948 C   0  0  0  0  0  0  0  0  0  0  0  0
    7.4029   -0.3057    5.1484 O   0  0  0  0  0  0  0  0  0  0  0  0
    7.3106   -2.1195    6.8655 N   0  0  0  0  0  0  0  0  0  0  0  0
    8.0117   -3.3681    6.7142 C   0  0  0  0  0  0  0  0  0  0  0  0
    2.5637   -2.7657   -0.7396 H   0  0  0  0  0  0  0  0  0  0  0  0
    2.5438   -1.3810    0.3473 H   0  0  0  0  0  0  0  0  0  0  0  0
    1.2635   -2.6144    0.4357 H   0  0  0  0  0  0  0  0  0  0  0  0
    3.7639   -4.0396    0.8848 H   0  0  0  0  0  0  0  0  0  0  0  0
    2.3997   -2.1975    2.9121 H   0  0  0  0  0  0  0  0  0  0  0  0
    4.4186   -4.4710    3.5032 H   0  0  0  0  0  0  0  0  0  0  0  0
    2.9452   -4.1723    4.4111 H   0  0  0  0  0  0  0  0  0  0  0  0
    5.5625   -2.6901    4.4159 H   0  0  0  0  0  0  0  0  0  0  0  0
    3.2230   -1.2548    5.6448 H   0  0  0  0  0  0  0  0  0  0  0  0
    3.7764   -0.9387    3.9800 H   0  0  0  0  0  0  0  0  0  0  0  0
    4.8680   -0.6600    5.3087 H   0  0  0  0  0  0  0  0  0  0  0  0
    5.8824   -3.4943    6.1818 H   0  0  0  0  0  0  0  0  0  0  0  0
    4.9507   -5.1039    6.1350 H   0  0  0  0  0  0  0  0  0  0  0  0
    5.2663   -1.0828    7.5183 H   0  0  0  0  0  0  0  0  0  0  0  0
    3.8432   -2.5522   11.6898 H   0  0  0  0  0  0  0  0  0  0  0  0
    1.2999   -1.8275   11.5878 H   0  0  0  0  0  0  0  0  0  0  0  0
    1.1812   -2.4952   13.8975 H   0  0  0  0  0  0  0  0  0  0  0  0
    0.3876   -1.1273   13.4772 H   0  0  0  0  0  0  0  0  0  0  0  0
    1.1504   -1.2755   16.1249 H   0  0  0  0  0  0  0  0  0  0  0  0
   -0.1053   -0.4493   15.2882 H   0  0  0  0  0  0  0  0  0  0  0  0
    1.4021    0.3390   15.5426 H   0  0  0  0  0  0  0  0  0  0  0  0
   -0.7287    1.4765   14.4282 H   0  0  0  0  0  0  0  0  0  0  0  0
   -1.0628    2.6621   13.1141 H   0  0  0  0  0  0  0  0  0  0  0  0
    0.0790    3.0225   14.3890 H   0  0  0  0  0  0  0  0  0  0  0  0
    1.4908    3.7331   13.1062 H   0  0  0  0  0  0  0  0  0  0  0  0
    0.7881    3.3230   11.5270 H   0  0  0  0  0  0  0  0  0  0  0  0
    2.8401    2.4683   14.5538 H   0  0  0  0  0  0  0  0  0  0  0  0
    3.9955    1.1337   14.6488 H   0  0  0  0  0  0  0  0  0  0  0  0
    2.4160    0.7987   14.1751 H   0  0  0  0  0  0  0  0  0  0  0  0
    4.6101    1.1356   11.1789 H   0  0  0  0  0  0  0  0  0  0  0  0
    3.7620    0.4047    9.4241 H   0  0  0  0  0  0  0  0  0  0  0  0
    2.6738   -0.6202   10.0373 H   0  0  0  0  0  0  0  0  0  0  0  0
    1.0950    1.6215   10.1073 H   0  0  0  0  0  0  0  0  0  0  0  0
    2.1989    0.7042    7.4495 H   0  0  0  0  0  0  0  0  0  0  0  0
    2.8038    2.1529    8.2755 H   0  0  0  0  0  0  0  0  0  0  0  0
    1.0873    2.0450    7.7988 H   0  0  0  0  0  0  0  0  0  0  0  0
    0.8564   -0.8533    8.2539 H   0  0  0  0  0  0  0  0  0  0  0  0
   -0.4289    0.0724    9.0396 H   0  0  0  0  0  0  0  0  0  0  0  0
    0.5087   -1.1034    9.9205 H   0  0  0  0  0  0  0  0  0  0  0  0
    6.2135   -0.8429   13.7217 H   0  0  0  0  0  0  0  0  0  0  0  0
    7.6721    0.5494   13.0072 H   0  0  0  0  0  0  0  0  0  0  0  0
    5.5475    2.4159   11.8748 H   0  0  0  0  0  0  0  0  0  0  0  0
    8.2829    3.3692   12.3256 H   0  0  0  0  0  0  0  0  0  0  0  0
    6.9005    4.0585   11.4528 H   0  0  0  0  0  0  0  0  0  0  0  0
    7.7374    2.6777   10.7694 H   0  0  0  0  0  0  0  0  0  0  0  0
    7.0509    2.9289   14.4302 H   0  0  0  0  0  0  0  0  0  0  0  0
    5.5621    2.0604   14.4228 H   0  0  0  0  0  0  0  0  0  0  0  0
    5.5731    3.6859   13.7700 H   0  0  0  0  0  0  0  0  0  0  0  0
    7.5731   -1.2349    9.7992 H   0  0  0  0  0  0  0  0  0  0  0  0
    9.0394   -1.4030   12.2555 H   0  0  0  0  0  0  0  0  0  0  0  0
   10.8514   -1.8897   10.4627 H   0  0  0  0  0  0  0  0  0  0  0  0
    9.5972   -1.5700    9.2575 H   0  0  0  0  0  0  0  0  0  0  0  0
    8.2603   -3.4648   10.1644 H   0  0  0  0  0  0  0  0  0  0  0  0
   11.1097   -4.2264    9.4061 H   0  0  0  0  0  0  0  0  0  0  0  0
    9.9427   -3.5721    8.2737 H   0  0  0  0  0  0  0  0  0  0  0  0
    9.6396   -5.1329    9.0382 H   0  0  0  0  0  0  0  0  0  0  0  0
   10.7956   -3.8660   11.8447 H   0  0  0  0  0  0  0  0  0  0  0  0
    9.5674   -5.1183   11.5941 H   0  0  0  0  0  0  0  0  0  0  0  0
    9.1498   -3.6330   12.4663 H   0  0  0  0  0  0  0  0  0  0  0  0
   10.2548    2.1834   10.7393 H   0  0  0  0  0  0  0  0  0  0  0  0
   10.8447   -0.0975    9.0699 H   0  0  0  0  0  0  0  0  0  0  0  0
   11.8360    2.7402    8.9449 H   0  0  0  0  0  0  0  0  0  0  0  0
   10.6383    1.9429    7.9236 H   0  0  0  0  0  0  0  0  0  0  0  0
   12.2688    1.3900    7.8875 H   0  0  0  0  0  0  0  0  0  0  0  0
   14.0833   -0.6209   11.0054 H   0  0  0  0  0  0  0  0  0  0  0  0
   15.5706    0.4464    9.8617 H   0  0  0  0  0  0  0  0  0  0  0  0
   13.3895    2.4542   10.3896 H   0  0  0  0  0  0  0  0  0  0  0  0
   14.8308    2.9925    9.5312 H   0  0  0  0  0  0  0  0  0  0  0  0
   14.9351    2.2277   11.1430 H   0  0  0  0  0  0  0  0  0  0  0  0
   16.6925   -0.7064    8.5249 H   0  0  0  0  0  0  0  0  0  0  0  0
   17.0122   -0.1094    6.9025 H   0  0  0  0  0  0  0  0  0  0  0  0
   16.5086   -1.8126    7.1478 H   0  0  0  0  0  0  0  0  0  0  0  0
   14.7114   -1.7115    5.7579 H   0  0  0  0  0  0  0  0  0  0  0  0
   12.4563   -1.1526    5.1659 H   0  0  0  0  0  0  0  0  0  0  0  0
   12.3803    0.0914    6.3537 H   0  0  0  0  0  0  0  0  0  0  0  0
   11.0893   -1.6232    7.0966 H   0  0  0  0  0  0  0  0  0  0  0  0
   13.1974   -3.6815    6.3591 H   0  0  0  0  0  0  0  0  0  0  0  0
   11.4116   -3.6019    5.9691 H   0  0  0  0  0  0  0  0  0  0  0  0
   11.9521   -4.0354    7.5147 H   0  0  0  0  0  0  0  0  0  0  0  0
   13.7924   -2.2071    8.4085 H   0  0  0  0  0  0  0  0  0  0  0  0
   12.2094   -2.4281    9.1239 H   0  0  0  0  0  0  0  0  0  0  0  0
   12.6944   -0.8270    8.5812 H   0  0  0  0  0  0  0  0  0  0  0  0
   14.7130    1.2652    3.2298 H   0  0  0  0  0  0  0  0  0  0  0  0
   12.2881    1.3598    4.8017 H   0  0  0  0  0  0  0  0  0  0  0  0
   11.3587    2.3807    2.7039 H   0  0  0  0  0  0  0  0  0  0  0  0
   12.8477    1.9973    1.8446 H   0  0  0  0  0  0  0  0  0  0  0  0
   14.0747    3.6253    3.2684 H   0  0  0  0  0  0  0  0  0  0  0  0
   11.4184    4.6517    2.1282 H   0  0  0  0  0  0  0  0  0  0  0  0
   12.9460    4.4761    1.2537 H   0  0  0  0  0  0  0  0  0  0  0  0
   12.7942    5.6871    2.5380 H   0  0  0  0  0  0  0  0  0  0  0  0
   11.3878    3.9125    4.7151 H   0  0  0  0  0  0  0  0  0  0  0  0
   12.7483    5.0342    4.9140 H   0  0  0  0  0  0  0  0  0  0  0  0
   12.9162    3.3568    5.4187 H   0  0  0  0  0  0  0  0  0  0  0  0
   10.4005    0.9522    1.7963 H   0  0  0  0  0  0  0  0  0  0  0  0
    8.9913   -0.0977    1.9598 H   0  0  0  0  0  0  0  0  0  0  0  0
   10.5889   -0.6853    1.3891 H   0  0  0  0  0  0  0  0  0  0  0  0
    8.8848   -1.7692    3.4829 H   0  0  0  0  0  0  0  0  0  0  0  0
    9.9587   -3.9472    3.8669 H   0  0  0  0  0  0  0  0  0  0  0  0
   11.6355   -2.6771    1.6053 H   0  0  0  0  0  0  0  0  0  0  0  0
    9.8923   -2.6942    1.4299 H   0  0  0  0  0  0  0  0  0  0  0  0
   10.8328   -4.1812    1.6690 H   0  0  0  0  0  0  0  0  0  0  0  0
   12.7751   -3.5191    2.9717 H   0  0  0  0  0  0  0  0  0  0  0  0
   12.1439   -4.5934    4.1301 H   0  0  0  0  0  0  0  0  0  0  0  0
   12.6883   -2.9366    4.5268 H   0  0  0  0  0  0  0  0  0  0  0  0
    9.0767   -3.1718    6.5559 H   0  0  0  0  0  0  0  0  0  0  0  0
    7.7162   -3.8219    5.7521 H   0  0  0  0  0  0  0  0  0  0  0  0
    7.8353   -4.0546    7.5286 H   0  0  0  0  0  0  0  0  0  0  0  0
  1  2  1  0  0  0  0
  1 84  1  0  0  0  0
  1 85  1  0  0  0  0
  1 86  1  0  0  0  0
  2  3  2  0  0  0  0
  2 87  1  0  0  0  0
  3  4  1  0  0  0  0
  3 88  1  0  0  0  0
  4  5  1  0  0  0  0
  4 89  1  0  0  0  0
  4 90  1  0  0  0  0
  5  6  1  0  0  0  0
  5  7  1  0  0  0  0
  5 91  1  6  0  0  0
  6 92  1  0  0  0  0
  6 93  1  0  0  0  0
  6 94  1  0  0  0  0
  7  8  1  0  0  0  0
  7 95  1  1  0  0  0
  8 96  1  0  0  0  0
  9 10  1  0  0  0  0
  9 82  1  0  0  0  0
  9  7  1  0  0  0  0
  9 97  1  6  0  0  0
 10 11  2  0  0  0  0
 10 12  1  0  0  0  0
 12 13  1  0  0  0  0
 12 98  1  0  0  0  0
 13 14  1  0  0  0  0
 13 16  1  0  0  0  0
 13 99  1  6  0  0  0
 14 15  1  0  0  0  0
 14100  1  0  0  0  0
 14101  1  0  0  0  0
 15102  1  0  0  0  0
 15103  1  0  0  0  0
 15104  1  0  0  0  0
 16 17  2  0  0  0  0
 16 18  1  0  0  0  0
 18 19  1  0  0  0  0
 18 20  1  0  0  0  0
 19105  1  0  0  0  0
 19106  1  0  0  0  0
 19107  1  0  0  0  0
 20 21  1  0  0  0  0
 20108  1  0  0  0  0
 20109  1  0  0  0  0
 21 22  2  0  0  0  0
 21 23  1  0  0  0  0
 23 24  1  0  0  0  0
 23 25  1  0  0  0  0
 24110  1  0  0  0  0
 24111  1  0  0  0  0
 24112  1  0  0  0  0
 25 30  1  0  0  0  0
 25 26  1  0  0  0  0
 25113  1  6  0  0  0
 26 27  1  0  0  0  0
 26114  1  0  0  0  0
 26115  1  0  0  0  0
 27 28  1  0  0  0  0
 27 29  1  0  0  0  0
 27116  1  0  0  0  0
 28117  1  0  0  0  0
 28118  1  0  0  0  0
 28119  1  0  0  0  0
 29120  1  0  0  0  0
 29121  1  0  0  0  0
 29122  1  0  0  0  0
 30 31  2  0  0  0  0
 30 32  1  0  0  0  0
 32 33  1  0  0  0  0
 32123  1  0  0  0  0
 33 37  1  0  0  0  0
 33 34  1  0  0  0  0
 33124  1  1  0  0  0
 34 35  1  0  0  0  0
 34 36  1  0  0  0  0
 34125  1  0  0  0  0
 35126  1  0  0  0  0
 35127  1  0  0  0  0
 35128  1  0  0  0  0
 36129  1  0  0  0  0
 36130  1  0  0  0  0
 36131  1  0  0  0  0
 37 38  2  0  0  0  0
 37 39  1  0  0  0  0
 39 40  1  0  0  0  0
 39132  1  0  0  0  0
 40 41  1  0  0  0  0
 40 45  1  0  0  0  0
 40133  1  1  0  0  0
 41 42  1  0  0  0  0
 41134  1  0  0  0  0
 41135  1  0  0  0  0
 42 43  1  0  0  0  0
 42 44  1  0  0  0  0
 42136  1  0  0  0  0
 43137  1  0  0  0  0
 43138  1  0  0  0  0
 43139  1  0  0  0  0
 44140  1  0  0  0  0
 44141  1  0  0  0  0
 44142  1  0  0  0  0
 45 46  2  0  0  0  0
 45 47  1  0  0  0  0
 47 48  1  0  0  0  0
 47143  1  0  0  0  0
 48 49  1  0  0  0  0
 48 50  1  0  0  0  0
 48144  1  6  0  0  0
 49145  1  0  0  0  0
 49146  1  0  0  0  0
 49147  1  0  0  0  0
 50 51  2  0  0  0  0
 50 52  1  0  0  0  0
 52 53  1  0  0  0  0
 52148  1  0  0  0  0
 53 55  1  0  0  0  0
 53 54  1  0  0  0  0
 53149  1  1  0  0  0
 54150  1  0  0  0  0
 54151  1  0  0  0  0
 54152  1  0  0  0  0
 55 56  2  0  0  0  0
 55 57  1  0  0  0  0
 57 58  1  0  0  0  0
 57 59  1  0  0  0  0
 58153  1  0  0  0  0
 58154  1  0  0  0  0
 58155  1  0  0  0  0
 59 60  1  0  0  0  0
 59 64  1  0  0  0  0
 59156  1  6  0  0  0
 60 61  1  0  0  0  0
 60157  1  0  0  0  0
 60158  1  0  0  0  0
 61 62  1  0  0  0  0
 61 63  1  0  0  0  0
 61159  1  0  0  0  0
 62160  1  0  0  0  0
 62161  1  0  0  0  0
 62162  1  0  0  0  0
 63163  1  0  0  0  0
 63164  1  0  0  0  0
 63165  1  0  0  0  0
 64 65  2  0  0  0  0
 64 66  1  0  0  0  0
 66 67  1  0  0  0  0
 66166  1  0  0  0  0
 67 68  1  0  0  0  0
 67 72  1  0  0  0  0
 67167  1  1  0  0  0
 68 69  1  0  0  0  0
 68168  1  0  0  0  0
 68169  1  0  0  0  0
 69 70  1  0  0  0  0
 69 71  1  0  0  0  0
 69170  1  0  0  0  0
 70171  1  0  0  0  0
 70172  1  0  0  0  0
 70173  1  0  0  0  0
 71174  1  0  0  0  0
 71175  1  0  0  0  0
 71176  1  0  0  0  0
 72 73  2  0  0  0  0
 72 74  1  0  0  0  0
 74 75  1  0  0  0  0
 74 76  1  0  0  0  0
 75177  1  0  0  0  0
 75178  1  0  0  0  0
 75179  1  0  0  0  0
 76 77  1  0  0  0  0
 76 80  1  0  0  0  0
 76180  1  6  0  0  0
 77 78  1  0  0  0  0
 77 79  1  0  0  0  0
 77181  1  0  0  0  0
 78182  1  0  0  0  0
 78183  1  0  0  0  0
 78184  1  0  0  0  0
 79185  1  0  0  0  0
 79186  1  0  0  0  0
 79187  1  0  0  0  0
 80 81  2  0  0  0  0
 80 82  1  0  0  0  0
 82 83  1  0  0  0  0
 83188  1  0  0  0  0
 83189  1  0  0  0  0
 83190  1  0  0  0  0
M  END
>  <Energy>
1528.74

$$$$