53325051
  -OEChem-03242010103D

 74 75  0     1  0  0  0  0  0999 V2000
   -1.2972    3.7324    0.5719 O   0  0  0  0  0  0  0  0  0  0  0  0
    2.0590   -1.8877    0.2469 O   0  0  0  0  0  0  0  0  0  0  0  0
   -3.8713   -0.4625    1.2362 O   0  0  0  0  0  0  0  0  0  0  0  0
   -2.4627   -2.6160    0.0234 O   0  0  0  0  0  0  0  0  0  0  0  0
    4.2322   -1.8715    1.2526 O   0  0  0  0  0  0  0  0  0  0  0  0
   -5.5698    0.4501   -0.0363 O   0  0  0  0  0  0  0  0  0  0  0  0
   -2.3731   -2.3953   -2.2744 O   0  0  0  0  0  0  0  0  0  0  0  0
    6.0799    0.0967    0.5159 O   0  0  0  0  0  0  0  0  0  0  0  0
    1.3202    1.8486    0.1993 C   0  0  0  0  0  0  0  0  0  0  0  0
    0.5894    2.8863   -0.7470 C   0  0  1  0  0  0  0  0  0  0  0  0
    1.0239    2.6594   -2.2014 C   0  0  0  0  0  0  0  0  0  0  0  0
    1.1741    0.3744   -0.3014 C   0  0  0  0  0  0  0  0  0  0  0  0
   -0.9676    3.0280   -0.6275 C   0  0  1  0  0  0  0  0  0  0  0  0
    0.8772    1.2210   -2.6750 C   0  0  0  0  0  0  0  0  0  0  0  0
    1.0072    0.1289   -1.6301 C   0  0  0  0  0  0  0  0  0  0  0  0
    0.8684    2.0765    1.6623 C   0  0  0  0  0  0  0  0  0  0  0  0
    2.8481    2.1624    0.1869 C   0  0  0  0  0  0  0  0  0  0  0  0
    1.4288   -0.7127    0.7552 C   0  0  1  0  0  0  0  0  0  0  0  0
   -1.7511    1.7479   -0.7109 C   0  0  0  0  0  0  0  0  0  0  0  0
    0.9213   -1.2380   -2.2726 C   0  0  0  0  0  0  0  0  0  0  0  0
    0.2793   -1.1395    1.6364 C   0  0  0  0  0  0  0  0  0  0  0  0
   -2.3673    1.1256    0.3055 C   0  0  0  0  0  0  0  0  0  0  0  0
   -2.9474   -0.2507    0.1688 C   0  0  1  0  0  0  0  0  0  0  0  0
   -1.8481   -1.3337    0.1765 C   0  0  1  0  0  0  0  0  0  0  0  0
   -1.0279   -1.3749    1.4340 C   0  0  0  0  0  0  0  0  0  0  0  0
   -2.5162    4.4435    0.4315 C   0  0  0  0  0  0  0  0  0  0  0  0
    2.9404   -2.4766    1.1997 C   0  0  0  0  0  0  0  0  0  0  0  0
   -5.1538   -0.0625    0.9939 C   0  0  0  0  0  0  0  0  0  0  0  0
   -2.6650   -3.0198   -1.2636 C   0  0  0  0  0  0  0  0  0  0  0  0
    4.9017   -1.9224   -0.0003 C   0  0  0  0  0  0  0  0  0  0  0  0
   -6.0056   -0.3443    2.1944 C   0  0  0  0  0  0  0  0  0  0  0  0
   -3.3122   -4.3715   -1.2697 C   0  0  0  0  0  0  0  0  0  0  0  0
    6.2603   -1.2625    0.1374 C   0  0  0  0  0  0  0  0  0  0  0  0
    7.3250    0.7606    0.6813 C   0  0  0  0  0  0  0  0  0  0  0  0
    0.9737    3.8803   -0.4688 H   0  0  0  0  0  0  0  0  0  0  0  0
    0.4783    3.3271   -2.8799 H   0  0  0  0  0  0  0  0  0  0  0  0
    2.0748    2.9559   -2.3110 H   0  0  0  0  0  0  0  0  0  0  0  0
   -1.2863    3.6531   -1.4739 H   0  0  0  0  0  0  0  0  0  0  0  0
   -0.0997    1.1171   -3.1635 H   0  0  0  0  0  0  0  0  0  0  0  0
    1.6217    1.0478   -3.4633 H   0  0  0  0  0  0  0  0  0  0  0  0
    0.9068    3.1419    1.9188 H   0  0  0  0  0  0  0  0  0  0  0  0
    1.5198    1.5725    2.3849 H   0  0  0  0  0  0  0  0  0  0  0  0
   -0.1452    1.7228    1.8505 H   0  0  0  0  0  0  0  0  0  0  0  0
    3.0345    3.2195    0.4096 H   0  0  0  0  0  0  0  0  0  0  0  0
    3.3151    1.9371   -0.7778 H   0  0  0  0  0  0  0  0  0  0  0  0
    3.3899    1.5772    0.9391 H   0  0  0  0  0  0  0  0  0  0  0  0
    2.1655   -0.2600    1.4303 H   0  0  0  0  0  0  0  0  0  0  0  0
   -1.7787    1.2687   -1.6856 H   0  0  0  0  0  0  0  0  0  0  0  0
    0.1468   -1.2461   -3.0479 H   0  0  0  0  0  0  0  0  0  0  0  0
    1.8762   -1.4880   -2.7462 H   0  0  0  0  0  0  0  0  0  0  0  0
    0.6552   -2.0397   -1.5827 H   0  0  0  0  0  0  0  0  0  0  0  0
    0.5904   -1.2795    2.6748 H   0  0  0  0  0  0  0  0  0  0  0  0
   -2.3573    1.5595    1.3012 H   0  0  0  0  0  0  0  0  0  0  0  0
   -3.4788   -0.3345   -0.7888 H   0  0  0  0  0  0  0  0  0  0  0  0
   -1.1800   -1.1554   -0.6634 H   0  0  0  0  0  0  0  0  0  0  0  0
   -1.5932   -1.6665    2.3207 H   0  0  0  0  0  0  0  0  0  0  0  0
   -2.4142    5.2338   -0.3193 H   0  0  0  0  0  0  0  0  0  0  0  0
   -3.3537    3.7893    0.1728 H   0  0  0  0  0  0  0  0  0  0  0  0
   -2.7422    4.9184    1.3905 H   0  0  0  0  0  0  0  0  0  0  0  0
    3.0667   -3.5287    0.9191 H   0  0  0  0  0  0  0  0  0  0  0  0
    2.5189   -2.4779    2.2102 H   0  0  0  0  0  0  0  0  0  0  0  0
    4.3125   -1.3810   -0.7491 H   0  0  0  0  0  0  0  0  0  0  0  0
    5.0222   -2.9642   -0.3164 H   0  0  0  0  0  0  0  0  0  0  0  0
   -5.6282    0.2131    3.0553 H   0  0  0  0  0  0  0  0  0  0  0  0
   -7.0320   -0.0238    1.9942 H   0  0  0  0  0  0  0  0  0  0  0  0
   -6.0101   -1.4174    2.4016 H   0  0  0  0  0  0  0  0  0  0  0  0
   -4.2807   -4.3206   -0.7657 H   0  0  0  0  0  0  0  0  0  0  0  0
   -3.4736   -4.6916   -2.3030 H   0  0  0  0  0  0  0  0  0  0  0  0
   -2.6594   -5.0973   -0.7783 H   0  0  0  0  0  0  0  0  0  0  0  0
    6.8423   -1.7730    0.9135 H   0  0  0  0  0  0  0  0  0  0  0  0
    6.7998   -1.3147   -0.8146 H   0  0  0  0  0  0  0  0  0  0  0  0
    7.9104    0.2868    1.4753 H   0  0  0  0  0  0  0  0  0  0  0  0
    7.8890    0.7579   -0.2564 H   0  0  0  0  0  0  0  0  0  0  0  0
    7.1266    1.7974    0.9660 H   0  0  0  0  0  0  0  0  0  0  0  0
  1 13  1  0  0  0  0
  1 26  1  0  0  0  0
  2 18  1  0  0  0  0
  2 27  1  0  0  0  0
  3 23  1  0  0  0  0
  3 28  1  0  0  0  0
  4 24  1  0  0  0  0
  4 29  1  0  0  0  0
  5 27  1  0  0  0  0
  5 30  1  0  0  0  0
  6 28  2  0  0  0  0
  7 29  2  0  0  0  0
  8 33  1  0  0  0  0
  8 34  1  0  0  0  0
  9 10  1  0  0  0  0
  9 12  1  0  0  0  0
  9 16  1  0  0  0  0
  9 17  1  0  0  0  0
 10 11  1  0  0  0  0
 10 13  1  0  0  0  0
 10 35  1  0  0  0  0
 11 14  1  0  0  0  0
 11 36  1  0  0  0  0
 11 37  1  0  0  0  0
 12 15  2  0  0  0  0
 12 18  1  0  0  0  0
 13 19  1  0  0  0  0
 13 38  1  0  0  0  0
 14 15  1  0  0  0  0
 14 39  1  0  0  0  0
 14 40  1  0  0  0  0
 15 20  1  0  0  0  0
 16 41  1  0  0  0  0
 16 42  1  0  0  0  0
 16 43  1  0  0  0  0
 17 44  1  0  0  0  0
 17 45  1  0  0  0  0
 17 46  1  0  0  0  0
 18 21  1  0  0  0  0
 18 47  1  0  0  0  0
 19 22  2  0  0  0  0
 19 48  1  0  0  0  0
 20 49  1  0  0  0  0
 20 50  1  0  0  0  0
 20 51  1  0  0  0  0
 21 25  2  0  0  0  0
 21 52  1  0  0  0  0
 22 23  1  0  0  0  0
 22 53  1  0  0  0  0
 23 24  1  0  0  0  0
 23 54  1  0  0  0  0
 24 25  1  0  0  0  0
 24 55  1  0  0  0  0
 25 56  1  0  0  0  0
 26 57  1  0  0  0  0
 26 58  1  0  0  0  0
 26 59  1  0  0  0  0
 27 60  1  0  0  0  0
 27 61  1  0  0  0  0
 28 31  1  0  0  0  0
 29 32  1  0  0  0  0
 30 33  1  0  0  0  0
 30 62  1  0  0  0  0
 30 63  1  0  0  0  0
 31 64  1  0  0  0  0
 31 65  1  0  0  0  0
 31 66  1  0  0  0  0
 32 67  1  0  0  0  0
 32 68  1  0  0  0  0
 32 69  1  0  0  0  0
 33 70  1  0  0  0  0
 33 71  1  0  0  0  0
 34 72  1  0  0  0  0
 34 73  1  0  0  0  0
 34 74  1  0  0  0  0
M  END
> <PUBCHEM_COMPOUND_CID>
53325051

> <PUBCHEM_CONFORMER_RMSD>
1.2

> <PUBCHEM_CONFORMER_DIVERSEORDER>
6
10
2
15
11
13
9
4
16
12
1
14
7
3
8
5

> <PUBCHEM_MMFF94_PARTIAL_CHARGES>
34
1 -0.56
12 -0.28
13 0.42
14 0.14
15 -0.28
18 0.56
19 -0.29
2 -0.56
20 0.14
21 -0.29
22 -0.29
23 0.42
24 0.42
25 -0.29
26 0.28
27 0.56
28 0.66
29 0.66
3 -0.43
30 0.28
31 0.06
32 0.06
33 0.28
34 0.28
4 -0.43
48 0.15
5 -0.56
52 0.15
53 0.15
56 0.15
6 -0.57
7 -0.57
8 -0.56
9 0.14

> <PUBCHEM_EFFECTIVE_ROTOR_COUNT>
12.4

> <PUBCHEM_PHARMACOPHORE_FEATURES>
8
1 1 acceptor
1 2 acceptor
1 5 acceptor
1 6 acceptor
1 7 acceptor
1 8 acceptor
3 9 16 17 hydrophobe
6 9 10 11 12 14 15 rings

> <PUBCHEM_HEAVY_ATOM_COUNT>
34

> <PUBCHEM_ATOM_DEF_STEREO_COUNT>
3

> <PUBCHEM_ATOM_UDEF_STEREO_COUNT>
2

> <PUBCHEM_BOND_DEF_STEREO_COUNT>
2

> <PUBCHEM_BOND_UDEF_STEREO_COUNT>
0

> <PUBCHEM_ISOTOPIC_ATOM_COUNT>
0

> <PUBCHEM_COMPONENT_COUNT>
1

> <PUBCHEM_CACTVS_TAUTO_COUNT>
1

> <PUBCHEM_CONFORMER_ID>
032DACFB00000006

> <PUBCHEM_MMFF94_ENERGY>
97.5301

> <PUBCHEM_FEATURE_SELFOVERLAP>
40.637

> <PUBCHEM_SHAPE_FINGERPRINT>
11513181 2 17983571905928366823
12156800 1 17832170241520665663
12633257 1 18131914858036242059
12788726 201 18264795210445406596
13140716 1 18337114561486995211
14790565 3 17473260973298708688
14955137 171 18261686895231897499
15849732 13 18409733937231389491
17980427 23 18131349747561537391
19319366 153 17683274664956256645
21033648 29 17842816864078090987
21304303 282 13480511082652969182
23558518 356 17476088299098491433
238 59 16901885990522330957
350125 39 18263364702989582801
463206 1 18263930015021892986
469060 322 16444199607893761694
5081480 168 16371000875146569110

> <PUBCHEM_SHAPE_MULTIPOLES>
652.75
11.26
4.83
2.08
10.63
1.28
-0.94
-4.99
5.56
-2.92
-1.22
-0.74
-0.34
-1.69

> <PUBCHEM_SHAPE_SELFOVERLAP>
1314.198

> <PUBCHEM_SHAPE_VOLUME>
376.5

> <PUBCHEM_COORDINATE_TYPE>
2
5
10

$$$$