129
 OpenBabel03292022003D

104111  0  0  1  0  0  0  0  0999 V2000
   37.2037   13.4290  -14.7747 N   0  0  0  0  0  0  0  0  0  0  0  0
   37.6682   12.7055  -15.8537 C   0  0  0  0  0  0  0  0  0  0  0  0
   38.9536   12.8970  -16.1972 N   0  0  0  0  0  0  0  0  0  0  0  0
   39.4756   12.2235  -17.2610 C   0  0  0  0  0  0  0  0  0  0  0  0
   40.8177   12.3974  -17.6501 N   0  0  0  0  0  0  0  0  0  0  0  0
   41.5041   13.6281  -17.2831 C   0  0  0  0  0  0  0  0  0  0  0  0
   42.6673   14.1353  -18.0877 C   0  0  0  0  0  0  0  0  0  0  0  0
   41.3579   14.8686  -18.1181 C   0  0  0  0  0  0  0  0  0  0  0  0
   38.6259   11.3478  -17.9547 C   0  0  0  0  0  0  0  0  0  0  0  0
   38.8170   10.5515  -19.0665 N   0  0  0  0  0  0  0  0  0  0  0  0
   37.6632    9.9437  -19.2412 C   0  0  0  0  0  0  0  0  0  0  0  0
   36.7397   10.3046  -18.2934 N   0  0  0  0  0  0  0  0  0  0  0  0
   35.4166    9.7359  -18.1768 C   0  0  1  0  0  0  0  0  0  0  0  0
   35.1981    8.9805  -16.8951 C   0  0  0  0  0  0  0  0  0  0  0  0
   33.9421    9.1327  -16.4607 C   0  0  0  0  0  0  0  0  0  0  0  0
   33.1418   10.0015  -17.3966 C   0  0  1  0  0  0  0  0  0  0  0  0
   32.1583   10.9288  -16.6782 C   0  0  0  0  0  0  0  0  0  0  0  0
   31.1860   10.1103  -16.0002 O   0  0  0  0  0  0  0  0  0  0  0  0
   30.2267    9.5711  -16.8058 C   0  0  0  0  0  0  0  0  0  0  0  0
   29.9323    9.9761  -17.9201 O   0  0  0  0  0  0  0  0  0  0  0  0
   29.6997    8.3187  -16.1537 C   0  0  0  0  0  0  0  0  0  0  0  0
   28.6622    7.6120  -17.0205 C   0  0  0  0  0  0  0  0  0  0  0  0
   28.2010    6.2863  -16.4098 C   0  0  0  0  0  0  0  0  0  0  0  0
   27.5418    6.4082  -15.0290 C   0  0  0  0  0  0  0  0  0  0  0  0
   26.3482    7.3681  -14.9654 C   0  0  0  0  0  0  0  0  0  0  0  0
   25.2108    6.9251  -15.8829 C   0  0  0  0  0  0  0  0  0  0  0  0
   24.0469    7.9161  -15.8902 C   0  0  0  0  0  0  0  0  0  0  0  0
   22.8925    7.4328  -16.7639 C   0  0  0  0  0  0  0  0  0  0  0  0
   23.2907    7.3082  -18.2150 C   0  0  0  0  0  0  0  0  0  0  0  0
   23.2909    8.2330  -19.0144 O   0  0  0  0  0  0  0  0  0  0  0  0
   23.6782    6.0313  -18.4874 O   0  0  0  0  0  0  0  0  0  0  0  0
   24.1257    5.7754  -19.8313 C   0  0  0  0  0  0  0  0  0  0  0  0
   22.9312    5.5510  -20.7646 C   0  0  2  0  0  0  0  0  0  0  0  0
   22.0973    4.3652  -20.3711 C   0  0  0  0  0  0  0  0  0  0  0  0
   22.1231    3.3963  -21.2904 C   0  0  0  0  0  0  0  0  0  0  0  0
   23.0019    3.7390  -22.4573 C   0  0  2  0  0  0  0  0  0  0  0  0
   24.1628    2.8707  -22.5676 N   0  0  0  0  0  0  0  0  0  0  0  0
   24.8496    2.2596  -21.5495 C   0  0  0  0  0  0  0  0  0  0  0  0
   25.8022    1.4680  -21.9962 N   0  0  0  0  0  0  0  0  0  0  0  0
   25.7377    1.5860  -23.3687 C   0  0  0  0  0  0  0  0  0  0  0  0
   26.4739    0.9815  -24.4010 C   0  0  0  0  0  0  0  0  0  0  0  0
   27.4515    0.0137  -24.1092 N   0  0  0  0  0  0  0  0  0  0  0  0
   28.5434   -0.2369  -25.0382 C   0  0  0  0  0  0  0  0  0  0  0  0
   29.8711    0.4459  -24.8791 C   0  0  0  0  0  0  0  0  0  0  0  0
   29.7455   -1.0191  -24.5829 C   0  0  0  0  0  0  0  0  0  0  0  0
   26.1779    1.3420  -25.6795 N   0  0  0  0  0  0  0  0  0  0  0  0
   25.2014    2.2373  -25.9078 C   0  0  0  0  0  0  0  0  0  0  0  0
   24.9367    2.5279  -27.2331 N   0  0  0  0  0  0  0  0  0  0  0  0
   24.4165    2.8320  -24.9928 N   0  0  0  0  0  0  0  0  0  0  0  0
   24.7443    2.4708  -23.7435 C   0  0  0  0  0  0  0  0  0  0  0  0
   23.3530    5.2185  -22.2091 C   0  0  0  0  0  0  0  0  0  0  0  0
   34.2450   10.7314  -18.1724 C   0  0  0  0  0  0  0  0  0  0  0  0
   37.3350   11.2238  -17.4727 C   0  0  0  0  0  0  0  0  0  0  0  0
   36.8010   11.8627  -16.4267 N   0  0  0  0  0  0  0  0  0  0  0  0
   37.9849   13.6873  -14.1863 H   0  0  0  0  0  0  0  0  0  0  0  0
   36.4368   12.9347  -14.3398 H   0  0  0  0  0  0  0  0  0  0  0  0
   40.9733   11.9812  -18.5665 H   0  0  0  0  0  0  0  0  0  0  0  0
   41.5666   13.7630  -16.2053 H   0  0  0  0  0  0  0  0  0  0  0  0
   42.9630   13.5894  -18.9749 H   0  0  0  0  0  0  0  0  0  0  0  0
   43.4904   14.5913  -17.5504 H   0  0  0  0  0  0  0  0  0  0  0  0
   40.7580   14.8102  -19.0181 H   0  0  0  0  0  0  0  0  0  0  0  0
   41.2825   15.8137  -17.5939 H   0  0  0  0  0  0  0  0  0  0  0  0
   37.4464    9.2290  -20.0277 H   0  0  0  0  0  0  0  0  0  0  0  0
   35.2929    9.0279  -19.0085 H   0  0  0  0  0  0  0  0  0  0  0  0
   35.9521    8.3824  -16.4010 H   0  0  0  0  0  0  0  0  0  0  0  0
   33.5358    8.6660  -15.5727 H   0  0  0  0  0  0  0  0  0  0  0  0
   32.5936    9.3323  -18.0732 H   0  0  0  0  0  0  0  0  0  0  0  0
   32.6612   11.5341  -15.9155 H   0  0  0  0  0  0  0  0  0  0  0  0
   31.6667   11.6204  -17.3730 H   0  0  0  0  0  0  0  0  0  0  0  0
   29.2816    8.5914  -15.1808 H   0  0  0  0  0  0  0  0  0  0  0  0
   30.5523    7.6451  -16.0016 H   0  0  0  0  0  0  0  0  0  0  0  0
   29.0900    7.4064  -18.0104 H   0  0  0  0  0  0  0  0  0  0  0  0
   27.8074    8.2745  -17.1994 H   0  0  0  0  0  0  0  0  0  0  0  0
   29.0623    5.6118  -16.3257 H   0  0  0  0  0  0  0  0  0  0  0  0
   27.5124    5.7974  -17.1089 H   0  0  0  0  0  0  0  0  0  0  0  0
   28.2903    6.7271  -14.2944 H   0  0  0  0  0  0  0  0  0  0  0  0
   27.2163    5.4099  -14.7116 H   0  0  0  0  0  0  0  0  0  0  0  0
   26.6652    8.3856  -15.2208 H   0  0  0  0  0  0  0  0  0  0  0  0
   25.9858    7.4102  -13.9312 H   0  0  0  0  0  0  0  0  0  0  0  0
   24.8558    5.9359  -15.5700 H   0  0  0  0  0  0  0  0  0  0  0  0
   25.5902    6.8272  -16.9038 H   0  0  0  0  0  0  0  0  0  0  0  0
   24.3998    8.8908  -16.2487 H   0  0  0  0  0  0  0  0  0  0  0  0
   23.6811    8.0601  -14.8667 H   0  0  0  0  0  0  0  0  0  0  0  0
   22.0555    8.1381  -16.7096 H   0  0  0  0  0  0  0  0  0  0  0  0
   22.5049    6.4710  -16.4078 H   0  0  0  0  0  0  0  0  0  0  0  0
   24.7648    4.8864  -19.7872 H   0  0  0  0  0  0  0  0  0  0  0  0
   24.7595    6.5985  -20.1846 H   0  0  0  0  0  0  0  0  0  0  0  0
   22.2918    6.4414  -20.7609 H   0  0  0  0  0  0  0  0  0  0  0  0
   21.5425    4.3159  -19.4422 H   0  0  0  0  0  0  0  0  0  0  0  0
   21.5891    2.4584  -21.2064 H   0  0  0  0  0  0  0  0  0  0  0  0
   22.4267    3.6388  -23.3855 H   0  0  0  0  0  0  0  0  0  0  0  0
   24.6075    2.4094  -20.5046 H   0  0  0  0  0  0  0  0  0  0  0  0
   27.6235   -0.0205  -23.1070 H   0  0  0  0  0  0  0  0  0  0  0  0
   28.2025   -0.4274  -26.0538 H   0  0  0  0  0  0  0  0  0  0  0  0
   29.9987    1.1287  -24.0465 H   0  0  0  0  0  0  0  0  0  0  0  0
   30.3976    0.7404  -25.7786 H   0  0  0  0  0  0  0  0  0  0  0  0
   29.7954   -1.3357  -23.5482 H   0  0  0  0  0  0  0  0  0  0  0  0
   30.1852   -1.7202  -25.2821 H   0  0  0  0  0  0  0  0  0  0  0  0
   25.2731    1.7655  -27.8079 H   0  0  0  0  0  0  0  0  0  0  0  0
   23.9685    2.7910  -27.3394 H   0  0  0  0  0  0  0  0  0  0  0  0
   22.7559    5.8388  -22.8922 H   0  0  0  0  0  0  0  0  0  0  0  0
   24.4036    5.4558  -22.4118 H   0  0  0  0  0  0  0  0  0  0  0  0
   34.5042   11.6759  -17.6792 H   0  0  0  0  0  0  0  0  0  0  0  0
   33.9257   10.9820  -19.1898 H   0  0  0  0  0  0  0  0  0  0  0  0
  1  2  1  0  0  0  0
  1 55  1  0  0  0  0
  1 56  1  0  0  0  0
  2  3  1  0  0  0  0
  2 54  2  0  0  0  0
  3  4  2  0  0  0  0
  4  5  1  0  0  0  0
  4  9  1  0  0  0  0
  5  6  1  0  0  0  0
  5 57  1  0  0  0  0
  6  7  1  0  0  0  0
  6  8  1  0  0  0  0
  6 58  1  0  0  0  0
  7  8  1  0  0  0  0
  7 59  1  0  0  0  0
  7 60  1  0  0  0  0
  8 61  1  0  0  0  0
  8 62  1  0  0  0  0
  9 10  1  0  0  0  0
  9 53  2  0  0  0  0
 10 11  2  0  0  0  0
 11 12  1  0  0  0  0
 11 63  1  0  0  0  0
 12 13  1  0  0  0  0
 12 53  1  0  0  0  0
 13 14  1  0  0  0  0
 13 52  1  0  0  0  0
 13 64  1  6  0  0  0
 14 15  2  0  0  0  0
 14 65  1  0  0  0  0
 15 16  1  0  0  0  0
 15 66  1  0  0  0  0
 16 52  1  0  0  0  0
 16 17  1  0  0  0  0
 16 67  1  6  0  0  0
 17 18  1  0  0  0  0
 17 68  1  0  0  0  0
 17 69  1  0  0  0  0
 18 19  1  0  0  0  0
 19 20  2  0  0  0  0
 19 21  1  0  0  0  0
 21 22  1  0  0  0  0
 21 70  1  0  0  0  0
 21 71  1  0  0  0  0
 22 23  1  0  0  0  0
 22 72  1  0  0  0  0
 22 73  1  0  0  0  0
 23 24  1  0  0  0  0
 23 74  1  0  0  0  0
 23 75  1  0  0  0  0
 24 25  1  0  0  0  0
 24 76  1  0  0  0  0
 24 77  1  0  0  0  0
 25 26  1  0  0  0  0
 25 78  1  0  0  0  0
 25 79  1  0  0  0  0
 26 27  1  0  0  0  0
 26 80  1  0  0  0  0
 26 81  1  0  0  0  0
 27 28  1  0  0  0  0
 27 82  1  0  0  0  0
 27 83  1  0  0  0  0
 28 29  1  0  0  0  0
 28 84  1  0  0  0  0
 28 85  1  0  0  0  0
 29 30  2  0  0  0  0
 29 31  1  0  0  0  0
 31 32  1  0  0  0  0
 32 86  1  0  0  0  0
 32 87  1  0  0  0  0
 33 34  1  0  0  0  0
 33 51  1  0  0  0  0
 33 32  1  0  0  0  0
 33 88  1  6  0  0  0
 34 35  2  0  0  0  0
 34 89  1  0  0  0  0
 35 36  1  0  0  0  0
 35 90  1  0  0  0  0
 36 37  1  0  0  0  0
 36 51  1  0  0  0  0
 36 91  1  6  0  0  0
 37 38  1  0  0  0  0
 37 50  1  0  0  0  0
 38 39  2  0  0  0  0
 38 92  1  0  0  0  0
 39 40  1  0  0  0  0
 40 41  1  0  0  0  0
 40 50  2  0  0  0  0
 41 42  1  0  0  0  0
 41 46  2  0  0  0  0
 42 43  1  0  0  0  0
 42 93  1  0  0  0  0
 43 44  1  0  0  0  0
 43 45  1  0  0  0  0
 43 94  1  0  0  0  0
 44 45  1  0  0  0  0
 44 95  1  0  0  0  0
 44 96  1  0  0  0  0
 45 97  1  0  0  0  0
 45 98  1  0  0  0  0
 46 47  1  0  0  0  0
 47 48  1  0  0  0  0
 47 49  2  0  0  0  0
 48 99  1  0  0  0  0
 48100  1  0  0  0  0
 49 50  1  0  0  0  0
 51101  1  0  0  0  0
 51102  1  0  0  0  0
 52103  1  0  0  0  0
 52104  1  0  0  0  0
 53 54  1  0  0  0  0
M  END
>  <Energy>
-97.2742

$$$$