9906561
  -OEChem-03242010103D

 57 59  0     0  0  0  0  0  0999 V2000
    5.2410   -2.1750    1.3296 O   0  0  0  0  0  0  0  0  0  0  0  0
    6.7026   -1.6079   -0.9650 O   0  0  0  0  0  0  0  0  0  0  0  0
   -1.0967    2.1466    0.0289 N   0  0  0  0  0  0  0  0  0  0  0  0
   -3.9036    1.3006    0.0608 C   0  0  0  0  0  0  0  0  0  0  0  0
   -2.7649    0.3579   -0.3428 C   0  0  0  0  0  0  0  0  0  0  0  0
   -3.4853    2.7537   -0.1878 C   0  0  0  0  0  0  0  0  0  0  0  0
   -1.4497    0.7532    0.3319 C   0  0  0  0  0  0  0  0  0  0  0  0
   -2.1460    3.0698    0.4813 C   0  0  0  0  0  0  0  0  0  0  0  0
   -5.1880    0.9631   -0.6911 C   0  0  0  0  0  0  0  0  0  0  0  0
    0.1873    2.4934    0.6376 C   0  0  0  0  0  0  0  0  0  0  0  0
    1.2828    1.5529    0.1379 C   0  0  0  0  0  0  0  0  0  0  0  0
   -5.6270   -0.4523   -0.4328 C   0  0  0  0  0  0  0  0  0  0  0  0
    2.6396    1.9138    0.7480 C   0  0  0  0  0  0  0  0  0  0  0  0
   -5.1743   -1.4712   -1.2605 C   0  0  0  0  0  0  0  0  0  0  0  0
   -6.4786   -0.7220    0.6303 C   0  0  0  0  0  0  0  0  0  0  0  0
    3.7243    0.9711    0.2930 C   0  0  0  0  0  0  0  0  0  0  0  0
   -5.5810   -2.7838   -1.0209 C   0  0  0  0  0  0  0  0  0  0  0  0
   -6.8852   -2.0347    0.8698 C   0  0  0  0  0  0  0  0  0  0  0  0
    3.9827   -0.1758    1.0288 C   0  0  0  0  0  0  0  0  0  0  0  0
    4.4465    1.2659   -0.8537 C   0  0  0  0  0  0  0  0  0  0  0  0
   -6.4363   -3.0655    0.0441 C   0  0  0  0  0  0  0  0  0  0  0  0
    4.9869   -1.0480    0.6081 C   0  0  0  0  0  0  0  0  0  0  0  0
    5.4504    0.3939   -1.2744 C   0  0  0  0  0  0  0  0  0  0  0  0
    5.7206   -0.7631   -0.5436 C   0  0  0  0  0  0  0  0  0  0  0  0
    4.4462   -2.3923    2.4939 C   0  0  0  0  0  0  0  0  0  0  0  0
    7.4056   -1.2442   -2.1515 C   0  0  0  0  0  0  0  0  0  0  0  0
   -4.0802    1.1781    1.1390 H   0  0  0  0  0  0  0  0  0  0  0  0
   -2.9763   -0.6728   -0.0409 H   0  0  0  0  0  0  0  0  0  0  0  0
   -2.6313    0.3656   -1.4326 H   0  0  0  0  0  0  0  0  0  0  0  0
   -3.4056    2.9425   -1.2665 H   0  0  0  0  0  0  0  0  0  0  0  0
   -4.2533    3.4350    0.1979 H   0  0  0  0  0  0  0  0  0  0  0  0
   -0.7207    0.0446   -0.0689 H   0  0  0  0  0  0  0  0  0  0  0  0
   -1.5205    0.5881    1.4150 H   0  0  0  0  0  0  0  0  0  0  0  0
   -2.2613    3.0275    1.5725 H   0  0  0  0  0  0  0  0  0  0  0  0
   -1.8712    4.0997    0.2228 H   0  0  0  0  0  0  0  0  0  0  0  0
   -5.0562    1.1148   -1.7708 H   0  0  0  0  0  0  0  0  0  0  0  0
   -5.9890    1.6535   -0.3954 H   0  0  0  0  0  0  0  0  0  0  0  0
    0.1300    2.4500    1.7332 H   0  0  0  0  0  0  0  0  0  0  0  0
    0.4560    3.5215    0.3648 H   0  0  0  0  0  0  0  0  0  0  0  0
    1.3412    1.5850   -0.9577 H   0  0  0  0  0  0  0  0  0  0  0  0
    1.0935    0.5146    0.4261 H   0  0  0  0  0  0  0  0  0  0  0  0
    2.5780    1.9017    1.8440 H   0  0  0  0  0  0  0  0  0  0  0  0
    2.9112    2.9426    0.4783 H   0  0  0  0  0  0  0  0  0  0  0  0
   -4.5166   -1.2655   -2.1003 H   0  0  0  0  0  0  0  0  0  0  0  0
   -6.8322    0.0731    1.2805 H   0  0  0  0  0  0  0  0  0  0  0  0
   -5.2334   -3.5862   -1.6651 H   0  0  0  0  0  0  0  0  0  0  0  0
   -7.5508   -2.2543    1.6994 H   0  0  0  0  0  0  0  0  0  0  0  0
    3.3772   -0.3436    1.9127 H   0  0  0  0  0  0  0  0  0  0  0  0
    4.2413    2.1638   -1.4299 H   0  0  0  0  0  0  0  0  0  0  0  0
   -6.7532   -4.0875    0.2304 H   0  0  0  0  0  0  0  0  0  0  0  0
    5.9787    0.6787   -2.1777 H   0  0  0  0  0  0  0  0  0  0  0  0
    4.7842   -3.3318    2.9436 H   0  0  0  0  0  0  0  0  0  0  0  0
    4.6030   -1.6080    3.2422 H   0  0  0  0  0  0  0  0  0  0  0  0
    3.3883   -2.5239    2.2419 H   0  0  0  0  0  0  0  0  0  0  0  0
    7.9571   -0.3067   -2.0225 H   0  0  0  0  0  0  0  0  0  0  0  0
    8.1486   -2.0266   -2.3385 H   0  0  0  0  0  0  0  0  0  0  0  0
    6.7421   -1.2214   -3.0227 H   0  0  0  0  0  0  0  0  0  0  0  0
  1 22  1  0  0  0  0
  1 25  1  0  0  0  0
  2 24  1  0  0  0  0
  2 26  1  0  0  0  0
  3  7  1  0  0  0  0
  3  8  1  0  0  0  0
  3 10  1  0  0  0  0
  4  5  1  0  0  0  0
  4  6  1  0  0  0  0
  4  9  1  0  0  0  0
  4 27  1  0  0  0  0
  5  7  1  0  0  0  0
  5 28  1  0  0  0  0
  5 29  1  0  0  0  0
  6  8  1  0  0  0  0
  6 30  1  0  0  0  0
  6 31  1  0  0  0  0
  7 32  1  0  0  0  0
  7 33  1  0  0  0  0
  8 34  1  0  0  0  0
  8 35  1  0  0  0  0
  9 12  1  0  0  0  0
  9 36  1  0  0  0  0
  9 37  1  0  0  0  0
 10 11  1  0  0  0  0
 10 38  1  0  0  0  0
 10 39  1  0  0  0  0
 11 13  1  0  0  0  0
 11 40  1  0  0  0  0
 11 41  1  0  0  0  0
 12 14  2  0  0  0  0
 12 15  1  0  0  0  0
 13 16  1  0  0  0  0
 13 42  1  0  0  0  0
 13 43  1  0  0  0  0
 14 17  1  0  0  0  0
 14 44  1  0  0  0  0
 15 18  2  0  0  0  0
 15 45  1  0  0  0  0
 16 19  2  0  0  0  0
 16 20  1  0  0  0  0
 17 21  2  0  0  0  0
 17 46  1  0  0  0  0
 18 21  1  0  0  0  0
 18 47  1  0  0  0  0
 19 22  1  0  0  0  0
 19 48  1  0  0  0  0
 20 23  2  0  0  0  0
 20 49  1  0  0  0  0
 21 50  1  0  0  0  0
 22 24  2  0  0  0  0
 23 24  1  0  0  0  0
 23 51  1  0  0  0  0
 25 52  1  0  0  0  0
 25 53  1  0  0  0  0
 25 54  1  0  0  0  0
 26 55  1  0  0  0  0
 26 56  1  0  0  0  0
 26 57  1  0  0  0  0
M  END
> <PUBCHEM_COMPOUND_CID>
9906561

> <PUBCHEM_CONFORMER_RMSD>
1

> <PUBCHEM_CONFORMER_DIVERSEORDER>
36
22
11
33
54
98
125
155
43
87
160
10
14
57
173
88
129
189
77
154
94
188
187
61
42
191
112
157
156
179
92
121
20
185
105
64
58
16
81
73
130
99
59
140
184
127
26
55
182
107
193
171
190
30
68
52
135
24
131
3
113
163
158
50
29
181
12
139
71
4
119
39
141
1
145
109
28
95
128
147
60
34
69
164
103
111
91
169
186
74
148
110
51
84
63
96
90
38
166
23
175
165
67
27
167
123
82
137
18
75
124
80
138
183
48
89
134
132
168
86
35
93
115
104
101
78
15
53
136
45
32
17
79
133
152
85
120
13
102
172
66
108
83
176
122
170
162
117
76
56
2
142
106
65
70
177
6
116
150
72
21
144
151
46
149
5
146
114
37
7
47
180
62
19
49
126
41
25
8
174
40
153
143
192
178
44
100
9
31
161
97
118
159

> <PUBCHEM_MMFF94_PARTIAL_CHARGES>
30
1 -0.36
10 0.27
12 -0.14
13 0.14
14 -0.15
15 -0.15
16 -0.14
17 -0.15
18 -0.15
19 -0.15
2 -0.36
20 -0.15
21 -0.15
22 0.08
23 -0.15
24 0.08
25 0.28
26 0.28
3 -0.81
44 0.15
45 0.15
46 0.15
47 0.15
48 0.15
49 0.15
50 0.15
51 0.15
7 0.27
8 0.27
9 0.14

> <PUBCHEM_EFFECTIVE_ROTOR_COUNT>
9.2

> <PUBCHEM_PHARMACOPHORE_FEATURES>
6
1 1 acceptor
1 2 acceptor
1 3 cation
6 12 14 15 17 18 21 rings
6 16 19 20 22 23 24 rings
6 3 4 5 6 7 8 rings

> <PUBCHEM_HEAVY_ATOM_COUNT>
26

> <PUBCHEM_ATOM_DEF_STEREO_COUNT>
0

> <PUBCHEM_ATOM_UDEF_STEREO_COUNT>
0

> <PUBCHEM_BOND_DEF_STEREO_COUNT>
0

> <PUBCHEM_BOND_UDEF_STEREO_COUNT>
0

> <PUBCHEM_ISOTOPIC_ATOM_COUNT>
0

> <PUBCHEM_COMPONENT_COUNT>
1

> <PUBCHEM_CACTVS_TAUTO_COUNT>
1

> <PUBCHEM_CONFORMER_ID>
0097298100000024

> <PUBCHEM_MMFF94_ENERGY>
76.6191

> <PUBCHEM_FEATURE_SELFOVERLAP>
30.45

> <PUBCHEM_SHAPE_FINGERPRINT>
10554248 39 11242234290668055768
10622 236 17970612009779753378
10693767 8 18044664088800892906
10883706 89 12390970968647443668
11524674 6 16917348143697620197
117089 54 17901675083720128003
11796584 16 18197778808833995316
11809386 21 18337102376780781905
11963148 33 18339921515899457366
12166972 35 18041282148776253469
12422481 6 17131836516567522429
12661589 4 18338228366702349730
13533116 47 18339361992986793124
1361 4 18196371652887999887
13668630 136 18343025458867368588
13690498 29 18408604742963435325
13782708 43 18202560704956152881
14123256 34 18272655644773310268
14211702 104 18411132558802223483
14251764 30 18339640139901322097
14347332 77 18335413561158858921
14420673 8 18342742944925147437
15183329 4 18411696608415485111
15250474 111 18189889816850887072
15348495 7 14117509982565745205
15352257 5 18342742935528539807
15467298 65 18187921712592139579
15510800 12 17560254535266879678
15684393 108 17822013142235072127
16120349 21 18130518470032356017
17134984 74 17968097547341486122
17913733 40 14692300525684356717
195137 95 11386368192759835094
19958102 18 17603859035835989587
20398071 356 18343305890003560791
20691028 202 8574172582601505159
21095086 4 18339932627153470279
21585481 104 16515951572459788119
21585483 132 18196074746242137631
21599406 157 16950273010290357647
21682296 61 18342459296557880447
229767 8 18048602809491454419
2303208 19 18272929449176157937
23522609 53 18123503624371144801
24983565 74 17839451525855092567
2748736 6 8862951563098689643
2838139 119 10737550736021510617
3004659 81 18409731721355253884
3862424 121 17751656570263990811
4107672 100 17894906297039765877
439807 62 18333448742701605211
465052 167 18131636698959179924
474113 269 17986382516565773407
5104073 3 17989203767969126921
636775 8 18130802118689657166
7970288 3 18338227263074900947
86090 222 16558208046209027612
8863177 126 18272085045557325609
999808 66 18060140937845267477

> <PUBCHEM_SHAPE_MULTIPOLES>
518.35
22.9
3.67
1.51
2.46
0
-0.16
20.14
5.13
-3.46
-0.66
2.78
1.14
-0.77

> <PUBCHEM_SHAPE_SELFOVERLAP>
1083.769

> <PUBCHEM_SHAPE_VOLUME>
293.7

> <PUBCHEM_COORDINATE_TYPE>
2
5
10

$$$$