21
 OpenBabel03302012423D

 69 71  0  0  0  0  0  0  0  0999 V2000
    0.5078   -0.8046    1.1856 C   0  0  0  0  0  0  0  0  0  0  0  0
    0.6753   -2.3301    1.2515 C   0  0  0  0  0  0  0  0  0  0  0  0
    2.0617   -2.8102    1.0781 N   0  0  0  0  0  0  0  0  0  0  0  0
    2.8917   -3.1130    2.2588 C   0  0  0  0  0  0  0  0  0  0  0  0
    2.3752   -2.6418    3.6202 C   0  0  0  0  0  0  0  0  0  0  0  0
    2.6988   -2.9431   -0.2264 C   0  0  0  0  0  0  0  0  0  0  0  0
    2.1265   -2.3335   -1.4004 S   0  0  0  0  0  0  0  0  0  0  0  0
    4.0077   -3.6739   -0.3734 C   0  0  0  0  0  0  0  0  0  0  0  0
    5.1233   -3.3076   -1.1276 C   0  0  0  0  0  0  0  0  0  0  0  0
    6.2197   -4.1863   -0.9821 C   0  0  0  0  0  0  0  0  0  0  0  0
    5.9853   -5.2983   -0.1526 C   0  0  0  0  0  0  0  0  0  0  0  0
    6.9108   -6.4617    0.2001 C   0  0  0  0  0  0  0  0  0  0  0  0
    6.8947   -7.0009    1.5655 C   0  0  0  0  0  0  0  0  0  0  0  0
    6.1383   -6.4601    2.6251 C   0  0  0  0  0  0  0  0  0  0  0  0
    6.1118   -7.0212    3.9138 C   0  0  0  0  0  0  0  0  0  0  0  0
    6.8601   -8.1777    4.2801 C   0  0  0  0  0  0  0  0  0  0  0  0
    6.8137   -8.7136    5.4984 N   0  3  0  0  0  0  0  0  0  0  0  0
    7.5749   -9.9009    5.9134 C   0  0  0  0  0  0  0  0  0  0  0  0
    5.9939   -8.1968    6.5973 C   0  0  0  0  0  0  0  0  0  0  0  0
    7.6714   -8.7162    3.2529 C   0  0  0  0  0  0  0  0  0  0  0  0
    7.7098   -8.1694    1.9725 C   0  0  0  0  0  0  0  0  0  0  0  0
    8.7329   -8.8497    0.8629 S   0  0  0  0  0  0  0  0  0  0  0  0
    8.6496   -8.1182   -0.6249 C   0  0  0  0  0  0  0  0  0  0  0  0
    9.4669   -8.6537   -1.6314 C   0  0  0  0  0  0  0  0  0  0  0  0
    9.4561   -8.1617   -2.9430 C   0  0  0  0  0  0  0  0  0  0  0  0
   10.3038   -8.7298   -3.9854 N   0  0  0  0  0  0  0  0  0  0  0  0
   10.3791   -8.1876   -5.3386 C   0  0  0  0  0  0  0  0  0  0  0  0
   11.1583   -9.9008   -3.7837 C   0  0  0  0  0  0  0  0  0  0  0  0
    8.5581   -7.1013   -3.1916 C   0  0  0  0  0  0  0  0  0  0  0  0
    7.7396   -6.5693   -2.1875 C   0  0  0  0  0  0  0  0  0  0  0  0
    7.7659   -7.0342   -0.8531 C   0  0  0  0  0  0  0  0  0  0  0  0
    4.3979   -5.1229    0.3784 S   0  0  0  0  0  0  0  0  0  0  0  0
    2.2605    0.5435   -1.2681 F   0  0  0  0  0  0  0  0  0  0  0  0
    3.5285    1.6775   -1.0958 P   0  5  0  0  0  0  0  0  0  0  0  0
    3.0794    2.3886   -2.5932 F   0  0  0  0  0  0  0  0  0  0  0  0
    2.4534    2.7315   -0.2696 F   0  0  0  0  0  0  0  0  0  0  0  0
    3.9762    0.9601    0.4003 F   0  0  0  0  0  0  0  0  0  0  0  0
    4.6013    0.6186   -1.9212 F   0  0  0  0  0  0  0  0  0  0  0  0
    4.7935    2.8259   -0.9249 F   0  0  0  0  0  0  0  0  0  0  0  0
   -0.3593   -0.5158    1.8247 H   0  0  0  0  0  0  0  0  0  0  0  0
    0.2756   -0.4644    0.1572 H   0  0  0  0  0  0  0  0  0  0  0  0
    1.3966   -0.2708    1.5824 H   0  0  0  0  0  0  0  0  0  0  0  0
   -0.0339   -2.8583    0.5791 H   0  0  0  0  0  0  0  0  0  0  0  0
    0.3125   -2.6199    2.2481 H   0  0  0  0  0  0  0  0  0  0  0  0
    3.8702   -2.5958    2.1329 H   0  0  0  0  0  0  0  0  0  0  0  0
    3.0493   -4.2017    2.3417 H   0  0  0  0  0  0  0  0  0  0  0  0
    2.1973   -1.5461    3.6073 H   0  0  0  0  0  0  0  0  0  0  0  0
    3.1512   -2.8594    4.3846 H   0  0  0  0  0  0  0  0  0  0  0  0
    1.4639   -3.1911    3.9270 H   0  0  0  0  0  0  0  0  0  0  0  0
    5.1744   -2.4091   -1.7284 H   0  0  0  0  0  0  0  0  0  0  0  0
    7.1634   -3.9825   -1.4708 H   0  0  0  0  0  0  0  0  0  0  0  0
    5.5463   -5.5766    2.5202 H   0  0  0  0  0  0  0  0  0  0  0  0
    5.4728   -6.4885    4.5904 H   0  0  0  0  0  0  0  0  0  0  0  0
    8.2206  -10.3841    5.1756 H   0  0  0  0  0  0  0  0  0  0  0  0
    6.8732  -10.6954    6.2518 H   0  0  0  0  0  0  0  0  0  0  0  0
    8.2395   -9.6374    6.7631 H   0  0  0  0  0  0  0  0  0  0  0  0
    5.3765   -7.3167    6.3960 H   0  0  0  0  0  0  0  0  0  0  0  0
    6.6509   -7.9263    7.4512 H   0  0  0  0  0  0  0  0  0  0  0  0
    5.2900   -8.9900    6.9367 H   0  0  0  0  0  0  0  0  0  0  0  0
    8.3094   -9.5680    3.3817 H   0  0  0  0  0  0  0  0  0  0  0  0
   10.0914   -9.4738   -1.3224 H   0  0  0  0  0  0  0  0  0  0  0  0
    9.7725   -7.2946   -5.5256 H   0  0  0  0  0  0  0  0  0  0  0  0
   10.0555   -8.9625   -6.0662 H   0  0  0  0  0  0  0  0  0  0  0  0
   11.4279   -7.9005   -5.5632 H   0  0  0  0  0  0  0  0  0  0  0  0
   11.1254  -10.3583   -2.7883 H   0  0  0  0  0  0  0  0  0  0  0  0
   12.2178   -9.6276   -3.9739 H   0  0  0  0  0  0  0  0  0  0  0  0
   10.8626  -10.7020   -4.4937 H   0  0  0  0  0  0  0  0  0  0  0  0
    8.4382   -6.6486   -4.1574 H   0  0  0  0  0  0  0  0  0  0  0  0
    7.0842   -5.8017   -2.5353 H   0  0  0  0  0  0  0  0  0  0  0  0
  1  2  1  0  0  0  0
  1 40  1  0  0  0  0
  1 41  1  0  0  0  0
  1 42  1  0  0  0  0
  2  3  1  0  0  0  0
  2 43  1  0  0  0  0
  2 44  1  0  0  0  0
  3  4  1  0  0  0  0
  3  6  1  0  0  0  0
  4  5  1  0  0  0  0
  4 45  1  0  0  0  0
  4 46  1  0  0  0  0
  5 47  1  0  0  0  0
  5 48  1  0  0  0  0
  5 49  1  0  0  0  0
  6  7  2  0  0  0  0
  6  8  1  0  0  0  0
  8  9  2  0  0  0  0
  8 32  1  0  0  0  0
  9 10  1  0  0  0  0
  9 50  1  0  0  0  0
 10 11  2  0  0  0  0
 10 51  1  0  0  0  0
 11 12  1  0  0  0  0
 11 32  1  0  0  0  0
 12 13  2  0  0  0  0
 12 31  1  0  0  0  0
 13 14  1  0  0  0  0
 13 21  1  0  0  0  0
 14 15  2  0  0  0  0
 14 52  1  0  0  0  0
 15 16  1  0  0  0  0
 15 53  1  0  0  0  0
 16 17  2  0  0  0  0
 16 20  1  0  0  0  0
 17 18  1  0  0  0  0
 17 19  1  0  0  0  0
 18 54  1  0  0  0  0
 18 55  1  0  0  0  0
 18 56  1  0  0  0  0
 19 57  1  0  0  0  0
 19 58  1  0  0  0  0
 19 59  1  0  0  0  0
 20 21  2  0  0  0  0
 20 60  1  0  0  0  0
 21 22  1  0  0  0  0
 22 23  1  0  0  0  0
 23 24  1  0  0  0  0
 23 31  2  0  0  0  0
 24 25  2  0  0  0  0
 24 61  1  0  0  0  0
 25 26  1  0  0  0  0
 25 29  1  0  0  0  0
 26 27  1  0  0  0  0
 26 28  1  0  0  0  0
 27 62  1  0  0  0  0
 27 63  1  0  0  0  0
 27 64  1  0  0  0  0
 28 65  1  0  0  0  0
 28 66  1  0  0  0  0
 28 67  1  0  0  0  0
 29 30  2  0  0  0  0
 29 68  1  0  0  0  0
 30 31  1  0  0  0  0
 30 69  1  0  0  0  0
 33 34  1  0  0  0  0
 34 35  1  0  0  0  0
 34 36  1  0  0  0  0
 34 37  1  0  0  0  0
 34 38  1  0  0  0  0
 34 39  1  0  0  0  0
M  CHG  2  17   1  34  -1
M  END
$$$$