22
 OpenBabel03302012423D

 77 81  0  0  0  0  0  0  0  0999 V2000
    1.3058   -2.0482   -3.6941 C   0  0  0  0  0  0  0  0  0  0  0  0
    2.2890   -0.8762   -3.6878 C   0  0  0  0  0  0  0  0  0  0  0  0
    1.9905    0.2785   -2.8188 N   0  0  0  0  0  0  0  0  0  0  0  0
    0.7529    0.3399   -2.0209 C   0  0  0  0  0  0  0  0  0  0  0  0
   -0.1084    1.5507   -2.4029 C   0  0  0  0  0  0  0  0  0  0  0  0
    3.0200    1.3039   -2.6523 C   0  0  0  0  0  0  0  0  0  0  0  0
    2.9760    2.2101   -1.5218 S   0  0  0  0  0  0  0  0  0  0  0  0
    4.2419    1.3742   -3.5214 C   0  0  0  0  0  0  0  0  0  0  0  0
    5.4804    1.9064   -3.1593 C   0  0  0  0  0  0  0  0  0  0  0  0
    6.4565    1.8044   -4.1558 C   0  0  0  0  0  0  0  0  0  0  0  0
    6.0054    1.2381   -5.3549 C   0  0  0  0  0  0  0  0  0  0  0  0
    6.7696    1.0594   -6.6452 C   0  0  0  0  0  0  0  0  0  0  0  0
    6.6153   -0.1877   -7.3899 C   0  0  0  0  0  0  0  0  0  0  0  0
    5.8349   -1.2827   -6.9567 C   0  0  0  0  0  0  0  0  0  0  0  0
    5.6884   -2.4589   -7.7136 C   0  0  0  0  0  0  0  0  0  0  0  0
    6.3288   -2.6647   -8.9748 C   0  0  0  0  0  0  0  0  0  0  0  0
    6.1675   -3.7688   -9.7006 N   0  3  0  0  0  0  0  0  0  0  0  0
    6.8154   -4.0155  -11.0017 C   0  0  0  0  0  0  0  0  0  0  0  0
    5.3314   -4.9058   -9.3012 C   0  0  0  0  0  0  0  0  0  0  0  0
    7.1526   -1.5991   -9.4066 C   0  0  0  0  0  0  0  0  0  0  0  0
    7.3064   -0.4302   -8.6696 C   0  0  0  0  0  0  0  0  0  0  0  0
    8.3218    0.7381   -9.2512 S   0  0  0  0  0  0  0  0  0  0  0  0
    8.3965    2.1069   -8.2938 C   0  0  0  0  0  0  0  0  0  0  0  0
    9.1981    3.1853   -8.7263 C   0  0  0  0  0  0  0  0  0  0  0  0
    9.2655    4.3468   -7.9426 C   0  0  0  0  0  0  0  0  0  0  0  0
    8.5078    4.4497   -6.7746 C   0  0  0  0  0  0  0  0  0  0  0  0
    7.6794    3.3974   -6.3923 C   0  0  0  0  0  0  0  0  0  0  0  0
    7.6164    2.1634   -7.1023 C   0  0  0  0  0  0  0  0  0  0  0  0
    8.5687    5.6993   -5.9116 C   0  0  0  0  0  0  0  0  0  0  0  0
    9.7237    6.6431   -6.2979 C   0  0  0  0  0  0  0  0  0  0  0  0
    9.8101    6.7591   -7.8121 C   0  0  0  0  0  0  0  0  0  0  0  0
   10.0862    5.4372   -8.3490 N   0  0  0  0  0  0  0  0  0  0  0  0
   11.1518    5.1949   -9.3047 C   0  0  0  0  0  0  0  0  0  0  0  0
   10.5439    4.4657  -10.4884 C   0  0  0  0  0  0  0  0  0  0  0  0
    9.9826    3.1093  -10.0310 C   0  0  0  0  0  0  0  0  0  0  0  0
    4.3925    0.8547   -5.1117 S   0  0  0  0  0  0  0  0  0  0  0  0
    2.6717    0.6150    2.5967 F   0  0  0  0  0  0  0  0  0  0  0  0
    4.0364   -0.3789    2.2825 P   0  5  0  0  0  0  0  0  0  0  0  0
    2.5559   -1.1873    1.9694 F   0  0  0  0  0  0  0  0  0  0  0  0
    3.9787   -1.5805    3.5082 F   0  0  0  0  0  0  0  0  0  0  0  0
    4.3600    0.6763    3.6012 F   0  0  0  0  0  0  0  0  0  0  0  0
    4.2203   -1.4620    0.9631 F   0  0  0  0  0  0  0  0  0  0  0  0
    4.1342    0.8225    1.0605 F   0  0  0  0  0  0  0  0  0  0  0  0
    1.7064   -2.8345   -4.3726 H   0  0  0  0  0  0  0  0  0  0  0  0
    0.3186   -1.7339   -4.0913 H   0  0  0  0  0  0  0  0  0  0  0  0
    1.2064   -2.4971   -2.6840 H   0  0  0  0  0  0  0  0  0  0  0  0
    2.3307   -0.5475   -4.7395 H   0  0  0  0  0  0  0  0  0  0  0  0
    3.2697   -1.3007   -3.3727 H   0  0  0  0  0  0  0  0  0  0  0  0
    1.0079    0.3797   -0.9401 H   0  0  0  0  0  0  0  0  0  0  0  0
    0.1117   -0.5476   -2.1526 H   0  0  0  0  0  0  0  0  0  0  0  0
    0.4177    2.5134   -2.2510 H   0  0  0  0  0  0  0  0  0  0  0  0
   -1.0182    1.5686   -1.7669 H   0  0  0  0  0  0  0  0  0  0  0  0
   -0.4130    1.4842   -3.4678 H   0  0  0  0  0  0  0  0  0  0  0  0
    5.6923    2.3377   -2.1900 H   0  0  0  0  0  0  0  0  0  0  0  0
    7.4680    2.1507   -3.9881 H   0  0  0  0  0  0  0  0  0  0  0  0
    5.3124   -1.2854   -6.0228 H   0  0  0  0  0  0  0  0  0  0  0  0
    5.0459   -3.1822   -7.2511 H   0  0  0  0  0  0  0  0  0  0  0  0
    7.4585   -3.2318  -11.4093 H   0  0  0  0  0  0  0  0  0  0  0  0
    6.0374   -4.1907  -11.7699 H   0  0  0  0  0  0  0  0  0  0  0  0
    7.4559   -4.9206  -10.9283 H   0  0  0  0  0  0  0  0  0  0  0  0
    4.7962   -4.8254   -8.3475 H   0  0  0  0  0  0  0  0  0  0  0  0
    5.9575   -5.8201   -9.2261 H   0  0  0  0  0  0  0  0  0  0  0  0
    4.5517   -5.0758  -10.0729 H   0  0  0  0  0  0  0  0  0  0  0  0
    7.7132   -1.6108  -10.3194 H   0  0  0  0  0  0  0  0  0  0  0  0
    7.0991    3.6089   -5.5216 H   0  0  0  0  0  0  0  0  0  0  0  0
    8.7169    5.4302   -4.8416 H   0  0  0  0  0  0  0  0  0  0  0  0
    7.5889    6.2133   -6.0077 H   0  0  0  0  0  0  0  0  0  0  0  0
   10.6901    6.2235   -5.9406 H   0  0  0  0  0  0  0  0  0  0  0  0
    9.5706    7.6317   -5.8139 H   0  0  0  0  0  0  0  0  0  0  0  0
   10.5920    7.4882   -8.1117 H   0  0  0  0  0  0  0  0  0  0  0  0
    8.8291    7.1187   -8.1954 H   0  0  0  0  0  0  0  0  0  0  0  0
   11.9323    4.5504   -8.8437 H   0  0  0  0  0  0  0  0  0  0  0  0
   11.6252    6.1460   -9.6279 H   0  0  0  0  0  0  0  0  0  0  0  0
   11.2806    4.3041  -11.3031 H   0  0  0  0  0  0  0  0  0  0  0  0
    9.7164    5.0981  -10.8812 H   0  0  0  0  0  0  0  0  0  0  0  0
   10.8028    2.3741   -9.8808 H   0  0  0  0  0  0  0  0  0  0  0  0
    9.3333    2.7519  -10.8594 H   0  0  0  0  0  0  0  0  0  0  0  0
  1  2  1  0  0  0  0
  1 44  1  0  0  0  0
  1 45  1  0  0  0  0
  1 46  1  0  0  0  0
  2  3  1  0  0  0  0
  2 47  1  0  0  0  0
  2 48  1  0  0  0  0
  3  4  1  0  0  0  0
  3  6  1  0  0  0  0
  4  5  1  0  0  0  0
  4 49  1  0  0  0  0
  4 50  1  0  0  0  0
  5 51  1  0  0  0  0
  5 52  1  0  0  0  0
  5 53  1  0  0  0  0
  6  7  2  0  0  0  0
  6  8  1  0  0  0  0
  8  9  2  0  0  0  0
  8 36  1  0  0  0  0
  9 10  1  0  0  0  0
  9 54  1  0  0  0  0
 10 11  2  0  0  0  0
 10 55  1  0  0  0  0
 11 12  1  0  0  0  0
 11 36  1  0  0  0  0
 12 13  2  0  0  0  0
 12 28  1  0  0  0  0
 13 14  1  0  0  0  0
 13 21  1  0  0  0  0
 14 15  2  0  0  0  0
 14 56  1  0  0  0  0
 15 16  1  0  0  0  0
 15 57  1  0  0  0  0
 16 17  2  0  0  0  0
 16 20  1  0  0  0  0
 17 18  1  0  0  0  0
 17 19  1  0  0  0  0
 18 58  1  0  0  0  0
 18 59  1  0  0  0  0
 18 60  1  0  0  0  0
 19 61  1  0  0  0  0
 19 62  1  0  0  0  0
 19 63  1  0  0  0  0
 20 21  2  0  0  0  0
 20 64  1  0  0  0  0
 21 22  1  0  0  0  0
 22 23  1  0  0  0  0
 23 24  1  0  0  0  0
 23 28  2  0  0  0  0
 24 25  2  0  0  0  0
 24 35  1  0  0  0  0
 25 26  1  0  0  0  0
 25 32  1  0  0  0  0
 26 27  2  0  0  0  0
 26 29  1  0  0  0  0
 27 28  1  0  0  0  0
 27 65  1  0  0  0  0
 29 30  1  0  0  0  0
 29 66  1  0  0  0  0
 29 67  1  0  0  0  0
 30 31  1  0  0  0  0
 30 68  1  0  0  0  0
 30 69  1  0  0  0  0
 31 32  1  0  0  0  0
 31 70  1  0  0  0  0
 31 71  1  0  0  0  0
 32 33  1  0  0  0  0
 33 34  1  0  0  0  0
 33 72  1  0  0  0  0
 33 73  1  0  0  0  0
 34 35  1  0  0  0  0
 34 74  1  0  0  0  0
 34 75  1  0  0  0  0
 35 76  1  0  0  0  0
 35 77  1  0  0  0  0
 37 38  1  0  0  0  0
 38 39  1  0  0  0  0
 38 40  1  0  0  0  0
 38 41  1  0  0  0  0
 38 42  1  0  0  0  0
 38 43  1  0  0  0  0
M  CHG  2  17   1  38  -1
M  END
$$$$