101134356
  -OEChem-03242010103D

 55 56  0     0  0  0  0  0  0999 V2000
   -3.9433   -0.0266    0.5350 O   0  0  0  0  0  0  0  0  0  0  0  0
   -0.6403    1.6178   -1.8351 O   0  0  0  0  0  0  0  0  0  0  0  0
    4.3053   -0.0077    0.9821 O   0  0  0  0  0  0  0  0  0  0  0  0
   -1.9526    1.1688    0.5716 N   0  0  0  0  0  0  0  0  0  0  0  0
   -0.5747    1.1850    0.4424 N   0  0  0  0  0  0  0  0  0  0  0  0
   -2.5132    2.4733    0.8738 C   0  0  0  0  0  0  0  0  0  0  0  0
   -1.3780    3.4988    0.9591 C   0  0  0  0  0  0  0  0  0  0  0  0
   -3.2552    2.4077    2.2138 C   0  0  0  0  0  0  0  0  0  0  0  0
   -3.4920    2.8737   -0.2360 C   0  0  0  0  0  0  0  0  0  0  0  0
   -2.7195    0.0234    0.4270 C   0  0  0  0  0  0  0  0  0  0  0  0
   -2.0212   -1.2354    0.1053 C   0  0  0  0  0  0  0  0  0  0  0  0
   -0.0104    1.4174   -0.7998 C   0  0  0  0  0  0  0  0  0  0  0  0
   -2.3271   -1.9222   -1.0697 C   0  0  0  0  0  0  0  0  0  0  0  0
   -1.0548   -1.7392    0.9761 C   0  0  0  0  0  0  0  0  0  0  0  0
   -1.6666   -3.1125   -1.3741 C   0  0  0  0  0  0  0  0  0  0  0  0
   -0.3939   -2.9293    0.6716 C   0  0  0  0  0  0  0  0  0  0  0  0
    1.4742    1.4275   -0.8379 C   0  0  0  0  0  0  0  0  0  0  0  0
   -0.6999   -3.6161   -0.5035 C   0  0  0  0  0  0  0  0  0  0  0  0
   -1.9935   -3.8461   -2.6305 C   0  0  0  0  0  0  0  0  0  0  0  0
    0.6396   -3.4672    1.6022 C   0  0  0  0  0  0  0  0  0  0  0  0
    2.2012    0.6964    0.1016 C   0  0  0  0  0  0  0  0  0  0  0  0
    2.1417    2.1684   -1.8133 C   0  0  0  0  0  0  0  0  0  0  0  0
    3.5955    0.7059    0.0658 C   0  0  0  0  0  0  0  0  0  0  0  0
    3.5361    2.1782   -1.8490 C   0  0  0  0  0  0  0  0  0  0  0  0
    4.2631    1.4467   -0.9096 C   0  0  0  0  0  0  0  0  0  0  0  0
    3.6981   -1.1937    1.4929 C   0  0  0  0  0  0  0  0  0  0  0  0
    4.7816   -2.1930    1.8382 C   0  0  0  0  0  0  0  0  0  0  0  0
   -3.0131    2.8456   -1.2211 H   0  0  0  0  0  0  0  0  0  0  0  0
   -4.1339    1.7566    2.1855 H   0  0  0  0  0  0  0  0  0  0  0  0
   -2.5983    2.0364    3.0093 H   0  0  0  0  0  0  0  0  0  0  0  0
   -0.8792    3.6839    0.0022 H   0  0  0  0  0  0  0  0  0  0  0  0
   -0.6304    3.2582    1.7246 H   0  0  0  0  0  0  0  0  0  0  0  0
   -3.6081    3.4016    2.5130 H   0  0  0  0  0  0  0  0  0  0  0  0
   -1.7908    4.4735    1.2533 H   0  0  0  0  0  0  0  0  0  0  0  0
   -4.3730    2.2267   -0.2837 H   0  0  0  0  0  0  0  0  0  0  0  0
   -3.8589    3.8948   -0.0784 H   0  0  0  0  0  0  0  0  0  0  0  0
   -0.0550    1.0636    1.3049 H   0  0  0  0  0  0  0  0  0  0  0  0
   -3.0773   -1.5267   -1.7507 H   0  0  0  0  0  0  0  0  0  0  0  0
   -0.8267   -1.2173    1.9026 H   0  0  0  0  0  0  0  0  0  0  0  0
   -0.1832   -4.5433   -0.7398 H   0  0  0  0  0  0  0  0  0  0  0  0
   -1.3561   -3.4939   -3.4476 H   0  0  0  0  0  0  0  0  0  0  0  0
   -1.8447   -4.9245   -2.5093 H   0  0  0  0  0  0  0  0  0  0  0  0
   -3.0412   -3.6977   -2.9133 H   0  0  0  0  0  0  0  0  0  0  0  0
    0.2279   -4.3016    2.1788 H   0  0  0  0  0  0  0  0  0  0  0  0
    1.5157   -3.8181    1.0465 H   0  0  0  0  0  0  0  0  0  0  0  0
    0.9868   -2.7031    2.3057 H   0  0  0  0  0  0  0  0  0  0  0  0
    1.6824    0.1210    0.8604 H   0  0  0  0  0  0  0  0  0  0  0  0
    1.5931    2.7482   -2.5509 H   0  0  0  0  0  0  0  0  0  0  0  0
    4.0561    2.7559   -2.6076 H   0  0  0  0  0  0  0  0  0  0  0  0
    5.3491    1.4580   -0.9426 H   0  0  0  0  0  0  0  0  0  0  0  0
    3.0452   -1.6689    0.7506 H   0  0  0  0  0  0  0  0  0  0  0  0
    3.1199   -0.9458    2.3897 H   0  0  0  0  0  0  0  0  0  0  0  0
    4.3503   -3.1138    2.2412 H   0  0  0  0  0  0  0  0  0  0  0  0
    5.4715   -1.7732    2.5777 H   0  0  0  0  0  0  0  0  0  0  0  0
    5.3762   -2.4393    0.9523 H   0  0  0  0  0  0  0  0  0  0  0  0
  1 10  2  0  0  0  0
  2 12  2  0  0  0  0
  3 23  1  0  0  0  0
  3 26  1  0  0  0  0
  4  5  1  0  0  0  0
  4  6  1  0  0  0  0
  4 10  1  0  0  0  0
  5 12  1  0  0  0  0
  5 37  1  0  0  0  0
  6  7  1  0  0  0  0
  6  8  1  0  0  0  0
  6  9  1  0  0  0  0
  7 31  1  0  0  0  0
  7 32  1  0  0  0  0
  7 34  1  0  0  0  0
  8 29  1  0  0  0  0
  8 30  1  0  0  0  0
  8 33  1  0  0  0  0
  9 28  1  0  0  0  0
  9 35  1  0  0  0  0
  9 36  1  0  0  0  0
 10 11  1  0  0  0  0
 11 13  2  0  0  0  0
 11 14  1  0  0  0  0
 12 17  1  0  0  0  0
 13 15  1  0  0  0  0
 13 38  1  0  0  0  0
 14 16  2  0  0  0  0
 14 39  1  0  0  0  0
 15 18  2  0  0  0  0
 15 19  1  0  0  0  0
 16 18  1  0  0  0  0
 16 20  1  0  0  0  0
 17 21  2  0  0  0  0
 17 22  1  0  0  0  0
 18 40  1  0  0  0  0
 19 41  1  0  0  0  0
 19 42  1  0  0  0  0
 19 43  1  0  0  0  0
 20 44  1  0  0  0  0
 20 45  1  0  0  0  0
 20 46  1  0  0  0  0
 21 23  1  0  0  0  0
 21 47  1  0  0  0  0
 22 24  2  0  0  0  0
 22 48  1  0  0  0  0
 23 25  2  0  0  0  0
 24 25  1  0  0  0  0
 24 49  1  0  0  0  0
 25 50  1  0  0  0  0
 26 27  1  0  0  0  0
 26 51  1  0  0  0  0
 26 52  1  0  0  0  0
 27 53  1  0  0  0  0
 27 54  1  0  0  0  0
 27 55  1  0  0  0  0
M  END
> <PUBCHEM_COMPOUND_CID>
101134356

> <PUBCHEM_CONFORMER_RMSD>
1

> <PUBCHEM_CONFORMER_DIVERSEORDER>
1
29
23
33
18
20
14
9
15
4
34
22
21
41
37
24
32
35
36
19
11
16
42
40
28
25
6
31
39
26
17
5
8
13
7
30
3
10
27
12
2
38

> <PUBCHEM_MMFF94_PARTIAL_CHARGES>
31
1 -0.57
10 0.54
11 0.09
12 0.54
13 -0.15
14 -0.15
15 -0.14
16 -0.14
17 0.09
18 -0.15
19 0.14
2 -0.57
20 0.14
21 -0.15
22 -0.15
23 0.08
24 -0.15
25 -0.15
26 0.28
3 -0.36
37 0.37
38 0.15
39 0.15
4 -0.36
40 0.15
47 0.15
48 0.15
49 0.15
5 -0.43
50 0.15
6 0.3

> <PUBCHEM_EFFECTIVE_ROTOR_COUNT>
8

> <PUBCHEM_PHARMACOPHORE_FEATURES>
7
1 1 acceptor
1 2 acceptor
1 3 acceptor
1 5 donor
4 6 7 8 9 hydrophobe
6 11 13 14 15 16 18 rings
6 17 21 22 23 24 25 rings

> <PUBCHEM_HEAVY_ATOM_COUNT>
27

> <PUBCHEM_ATOM_DEF_STEREO_COUNT>
0

> <PUBCHEM_ATOM_UDEF_STEREO_COUNT>
0

> <PUBCHEM_BOND_DEF_STEREO_COUNT>
0

> <PUBCHEM_BOND_UDEF_STEREO_COUNT>
0

> <PUBCHEM_ISOTOPIC_ATOM_COUNT>
0

> <PUBCHEM_COMPONENT_COUNT>
1

> <PUBCHEM_CACTVS_TAUTO_COUNT>
6

> <PUBCHEM_CONFORMER_ID>
0607301400000001

> <PUBCHEM_MMFF94_ENERGY>
91.9031

> <PUBCHEM_FEATURE_SELFOVERLAP>
35.522

> <PUBCHEM_SHAPE_FINGERPRINT>
11513181 2 17699834138546071142
11578080 2 15692676027666682251
11582403 64 16412354409595375392
12156800 1 16124099943029759479
12160290 23 18196675057851614349
12363563 72 17481155921455815167
12422481 6 17614831921384391498
12539773 59 18336255756552136824
12553582 1 17835250312639397682
12788726 201 18268720582709349237
133893 2 17832157030544511033
14081887 123 18125432270791971752
14114206 34 17758696819887125318
14955137 171 15966004172966297281
15420108 30 17837756842705338715
16110190 28 18189329071049554266
16752209 62 18411134770842587249
17818456 19 18341890766935682474
20775438 99 15605657533524011574
21315764 21 17171765311079039230
21796203 349 17679889028526426536
23559900 14 18058466330550692452
23598288 3 18338531844548331053
23728640 28 18340498866608404043
3493558 16 15898110411628916464
35225 105 18272939340126903968
4017518 198 17984409742832574798
463206 1 17474099282073981286
469060 322 14203375381212106594
6287921 2 17193469348651975867
70251023 43 16904697428421727543
7064713 232 18268699516406427008

> <PUBCHEM_SHAPE_MULTIPOLES>
528.08
7.47
5.49
2.13
7.71
3.03
0.44
-2.14
-1.72
-3.42
0.59
0.38
0.71
-4.48

> <PUBCHEM_SHAPE_SELFOVERLAP>
1110.634

> <PUBCHEM_SHAPE_VOLUME>
299.2

> <PUBCHEM_COORDINATE_TYPE>
2
5
10

$$$$