688674
  -OEChem-03242010103D

 35 37  0     0  0  0  0  0  0999 V2000
    1.1612    0.6871    0.1528 O   0  0  0  0  0  0  0  0  0  0  0  0
   -3.6633    1.8076   -0.6883 O   0  0  0  0  0  0  0  0  0  0  0  0
   -5.0774   -0.3461    0.3549 O   0  0  0  0  0  0  0  0  0  0  0  0
    3.3067   -2.7374   -0.3652 O   0  0  0  0  0  0  0  0  0  0  0  0
   -0.9309   -0.4911    0.1095 C   0  0  0  0  0  0  0  0  0  0  0  0
    0.5422   -0.5469    0.0242 C   0  0  0  0  0  0  0  0  0  0  0  0
    3.3247   -0.3911   -0.0846 C   0  0  0  0  0  0  0  0  0  0  0  0
    2.5306    0.7408    0.0920 C   0  0  0  0  0  0  0  0  0  0  0  0
    1.1967   -1.7071   -0.1429 C   0  0  0  0  0  0  0  0  0  0  0  0
   -1.6172    0.6425   -0.3333 C   0  0  0  0  0  0  0  0  0  0  0  0
    2.6720   -1.7031   -0.2115 C   0  0  0  0  0  0  0  0  0  0  0  0
   -1.6451   -1.5714    0.6335 C   0  0  0  0  0  0  0  0  0  0  0  0
   -3.0087    0.6953   -0.2526 C   0  0  0  0  0  0  0  0  0  0  0  0
   -3.7183   -0.3853    0.2712 C   0  0  0  0  0  0  0  0  0  0  0  0
   -3.0365   -1.5187    0.7143 C   0  0  0  0  0  0  0  0  0  0  0  0
    4.7158   -0.2769   -0.1384 C   0  0  0  0  0  0  0  0  0  0  0  0
    3.1249    1.9968    0.2164 C   0  0  0  0  0  0  0  0  0  0  0  0
    5.3074    0.9809   -0.0142 C   0  0  0  0  0  0  0  0  0  0  0  0
    4.5139    2.1153    0.1629 C   0  0  0  0  0  0  0  0  0  0  0  0
   -3.8882    2.8430    0.2665 C   0  0  0  0  0  0  0  0  0  0  0  0
   -5.8103   -0.8339   -0.7672 C   0  0  0  0  0  0  0  0  0  0  0  0
    0.7100   -2.6688   -0.2555 H   0  0  0  0  0  0  0  0  0  0  0  0
   -1.0832    1.4921   -0.7534 H   0  0  0  0  0  0  0  0  0  0  0  0
   -1.1502   -2.4629    1.0095 H   0  0  0  0  0  0  0  0  0  0  0  0
   -3.5831   -2.3618    1.1284 H   0  0  0  0  0  0  0  0  0  0  0  0
    5.3495   -1.1484   -0.2753 H   0  0  0  0  0  0  0  0  0  0  0  0
    2.5146    2.8852    0.3546 H   0  0  0  0  0  0  0  0  0  0  0  0
    6.3886    1.0775   -0.0553 H   0  0  0  0  0  0  0  0  0  0  0  0
    4.9788    3.0922    0.2593 H   0  0  0  0  0  0  0  0  0  0  0  0
   -2.9362    3.2302    0.6433 H   0  0  0  0  0  0  0  0  0  0  0  0
   -4.4998    2.4758    1.0965 H   0  0  0  0  0  0  0  0  0  0  0  0
   -4.4246    3.6562   -0.2300 H   0  0  0  0  0  0  0  0  0  0  0  0
   -5.5897   -1.8922   -0.9385 H   0  0  0  0  0  0  0  0  0  0  0  0
   -5.5760   -0.2510   -1.6635 H   0  0  0  0  0  0  0  0  0  0  0  0
   -6.8771   -0.7294   -0.5512 H   0  0  0  0  0  0  0  0  0  0  0  0
  1  6  1  0  0  0  0
  1  8  1  0  0  0  0
  2 13  1  0  0  0  0
  2 20  1  0  0  0  0
  3 14  1  0  0  0  0
  3 21  1  0  0  0  0
  4 11  2  0  0  0  0
  5  6  1  0  0  0  0
  5 10  2  0  0  0  0
  5 12  1  0  0  0  0
  6  9  2  0  0  0  0
  7  8  1  0  0  0  0
  7 11  1  0  0  0  0
  7 16  2  0  0  0  0
  8 17  2  0  0  0  0
  9 11  1  0  0  0  0
  9 22  1  0  0  0  0
 10 13  1  0  0  0  0
 10 23  1  0  0  0  0
 12 15  2  0  0  0  0
 12 24  1  0  0  0  0
 13 14  2  0  0  0  0
 14 15  1  0  0  0  0
 15 25  1  0  0  0  0
 16 18  1  0  0  0  0
 16 26  1  0  0  0  0
 17 19  1  0  0  0  0
 17 27  1  0  0  0  0
 18 19  2  0  0  0  0
 18 28  1  0  0  0  0
 19 29  1  0  0  0  0
 20 30  1  0  0  0  0
 20 31  1  0  0  0  0
 20 32  1  0  0  0  0
 21 33  1  0  0  0  0
 21 34  1  0  0  0  0
 21 35  1  0  0  0  0
M  END
> <PUBCHEM_COMPOUND_CID>
688674

> <PUBCHEM_CONFORMER_RMSD>
0.6

> <PUBCHEM_CONFORMER_DIVERSEORDER>
1
8
11
6
12
3
2
10
7
9
4
5

> <PUBCHEM_MMFF94_PARTIAL_CHARGES>
29
1 -0.16
10 -0.15
11 0.47
12 -0.15
13 0.08
14 0.08
15 -0.15
16 -0.15
17 -0.15
18 -0.15
19 -0.15
2 -0.36
20 0.28
21 0.28
22 0.15
23 0.15
24 0.15
25 0.15
26 0.15
27 0.15
28 0.15
29 0.15
3 -0.36
4 -0.57
5 0.03
6 0.05
7 0.09
8 0.08
9 -0.14

> <PUBCHEM_EFFECTIVE_ROTOR_COUNT>
3

> <PUBCHEM_PHARMACOPHORE_FEATURES>
7
1 1 acceptor
1 2 acceptor
1 3 acceptor
1 4 acceptor
6 1 6 7 8 9 11 rings
6 5 10 12 13 14 15 rings
6 7 8 16 17 18 19 rings

> <PUBCHEM_HEAVY_ATOM_COUNT>
21

> <PUBCHEM_ATOM_DEF_STEREO_COUNT>
0

> <PUBCHEM_ATOM_UDEF_STEREO_COUNT>
0

> <PUBCHEM_BOND_DEF_STEREO_COUNT>
0

> <PUBCHEM_BOND_UDEF_STEREO_COUNT>
0

> <PUBCHEM_ISOTOPIC_ATOM_COUNT>
0

> <PUBCHEM_COMPONENT_COUNT>
1

> <PUBCHEM_CACTVS_TAUTO_COUNT>
1

> <PUBCHEM_CONFORMER_ID>
000A822200000001

> <PUBCHEM_MMFF94_ENERGY>
84.5269

> <PUBCHEM_FEATURE_SELFOVERLAP>
35.556

> <PUBCHEM_SHAPE_FINGERPRINT>
10366900 7 18341327902844606089
10411042 1 18051979117858797598
10595046 47 18343017805087843335
10608611 8 18408885126706540360
10646746 165 18333733524502466320
10670039 82 18188223052203732596
1100329 8 13222988459836865568
11405975 8 18263926540224285803
11471102 20 18341615936516017162
11595378 159 16805594837500318148
12107183 9 17835805192443969115
12236239 1 17203614791217200163
12403259 415 18114744833154551197
12507560 40 18409451362368095439
12730499 353 18410581716377914490
14341114 176 18333737947949711041
14528608 73 18271806873178175166
15196674 1 18338235968424951069
15219456 202 18409168800854413990
15375358 24 18334296491472538530
15961568 22 17604152635600842844
1601671 61 18408325471805756356
17834072 33 18272649077837152823
17844677 252 18342183215231931525
200 152 17989205962686260691
20645477 56 18260832596492983929
20645477 70 18060144211000880046
21065198 57 18409169883196891050
21267235 1 18410582785581943970
21279426 13 18267589014136720756
21315763 129 18410290298625357128
21421861 104 17533490145956323226
221357 26 18343581849999858457
23402539 116 18115581681694106263
23402655 69 18271804588297700188
23557571 272 17603581915586787269
23559900 14 18336824315907224769
245318 6 16810123949724473700
335352 9 18411983590262644262
3545911 37 18408606984698310934
4214541 1 18409449163439921737
42630746 31 18343584058050749206
4325135 7 18272647974399641247
474 4 17749394810025000332
5104073 3 18261958444549002969
5281201 14 18340773645630698158
542803 24 17346605183340371707
543358 83 18268434542720427768
59755656 215 18408044022308627726
633830 44 18266453213977073295
77779 3 18411139099995229983
7808743 9 17762336217057323080
8272917 22 18272376351956873958
90127 26 18336276647289044266
9709674 26 18410017615157012263

> <PUBCHEM_SHAPE_MULTIPOLES>
408.69
12.22
2.57
0.73
3.02
0.63
0
2.91
0.87
-0.36
-0.05
0.36
-0.05
0.53

> <PUBCHEM_SHAPE_SELFOVERLAP>
898.098

> <PUBCHEM_SHAPE_VOLUME>
221.1

> <PUBCHEM_COORDINATE_TYPE>
2
5
10

$$$$