92305
  -OEChem-03242010103D

 71 72  0     1  0  0  0  0  0999 V2000
   -6.4346    1.2916    0.5671 O   0  0  0  0  0  0  0  0  0  0  0  0
   -6.6426   -0.9512    2.1960 O   0  0  0  0  0  0  0  0  0  0  0  0
    5.3871   -2.5601   -0.0304 O   0  0  0  0  0  0  0  0  0  0  0  0
    7.6442   -1.2732    0.9577 O   0  0  0  0  0  0  0  0  0  0  0  0
    0.9674    2.7015    0.1393 N   0  0  2  0  0  0  0  0  0  0  0  0
   -0.3652   -2.2783   -1.0110 N   0  0  0  0  0  0  0  0  0  0  0  0
   -2.1103   -0.2890   -1.1948 C   0  0  1  0  0  0  0  0  0  0  0  0
   -2.5995   -0.1985   -2.7028 C   0  0  0  0  0  0  0  0  0  0  0  0
   -1.3436    1.0248   -0.8017 C   0  0  0  0  0  0  0  0  0  0  0  0
   -0.8297    1.0741    0.6525 C   0  0  0  0  0  0  0  0  0  0  0  0
   -3.3418   -0.4654   -0.2754 C   0  0  0  0  0  0  0  0  0  0  0  0
   -0.1705    2.4115    1.0031 C   0  0  0  0  0  0  0  0  0  0  0  0
   -3.3441   -1.4491   -3.2021 C   0  0  0  0  0  0  0  0  0  0  0  0
   -1.4618    0.1173   -3.6923 C   0  0  0  0  0  0  0  0  0  0  0  0
   -1.1335   -1.4109   -1.0838 C   0  0  0  0  0  0  0  0  0  0  0  0
   -4.3479    0.5007   -0.2639 C   0  0  0  0  0  0  0  0  0  0  0  0
   -3.4462   -1.5908    0.5420 C   0  0  0  0  0  0  0  0  0  0  0  0
    2.1430    1.9375    0.5609 C   0  0  0  0  0  0  0  0  0  0  0  0
   -5.4585    0.3414    0.5649 C   0  0  0  0  0  0  0  0  0  0  0  0
    1.2658    4.1349    0.1431 C   0  0  0  0  0  0  0  0  0  0  0  0
   -4.5567   -1.7500    1.3710 C   0  0  0  0  0  0  0  0  0  0  0  0
    3.1129    1.7373   -0.6043 C   0  0  0  0  0  0  0  0  0  0  0  0
   -5.5629   -0.7840    1.3823 C   0  0  0  0  0  0  0  0  0  0  0  0
    4.3183    0.9321   -0.1887 C   0  0  0  0  0  0  0  0  0  0  0  0
    4.3008   -0.4582   -0.3003 C   0  0  0  0  0  0  0  0  0  0  0  0
    5.4509    1.5778    0.3071 C   0  0  0  0  0  0  0  0  0  0  0  0
    5.4162   -1.2029    0.0836 C   0  0  0  0  0  0  0  0  0  0  0  0
   -6.2514    2.4109   -0.2976 C   0  0  0  0  0  0  0  0  0  0  0  0
    6.5660    0.8331    0.6914 C   0  0  0  0  0  0  0  0  0  0  0  0
    6.5487   -0.5573    0.5795 C   0  0  0  0  0  0  0  0  0  0  0  0
   -6.6722   -2.1291    2.9998 C   0  0  0  0  0  0  0  0  0  0  0  0
    4.1913   -3.1417   -0.5464 C   0  0  0  0  0  0  0  0  0  0  0  0
    8.7602   -0.5367    1.4540 C   0  0  0  0  0  0  0  0  0  0  0  0
   -3.3059    0.6370   -2.7938 H   0  0  0  0  0  0  0  0  0  0  0  0
   -0.4682    1.1374   -1.4523 H   0  0  0  0  0  0  0  0  0  0  0  0
   -1.9782    1.9011   -0.9850 H   0  0  0  0  0  0  0  0  0  0  0  0
   -0.1463    0.2407    0.8431 H   0  0  0  0  0  0  0  0  0  0  0  0
   -1.6705    0.9390    1.3429 H   0  0  0  0  0  0  0  0  0  0  0  0
    0.1143    2.4257    2.0634 H   0  0  0  0  0  0  0  0  0  0  0  0
   -0.9409    3.1853    0.8835 H   0  0  0  0  0  0  0  0  0  0  0  0
   -4.2168   -1.6742   -2.5820 H   0  0  0  0  0  0  0  0  0  0  0  0
   -3.7083   -1.2966   -4.2243 H   0  0  0  0  0  0  0  0  0  0  0  0
   -2.6944   -2.3302   -3.2116 H   0  0  0  0  0  0  0  0  0  0  0  0
   -1.8412    0.1225   -4.7208 H   0  0  0  0  0  0  0  0  0  0  0  0
   -0.6564   -0.6219   -3.6460 H   0  0  0  0  0  0  0  0  0  0  0  0
   -1.0370    1.1098   -3.5180 H   0  0  0  0  0  0  0  0  0  0  0  0
   -4.2220    1.3623   -0.9078 H   0  0  0  0  0  0  0  0  0  0  0  0
   -2.6930   -2.3706    0.5713 H   0  0  0  0  0  0  0  0  0  0  0  0
    1.8605    0.9390    0.9153 H   0  0  0  0  0  0  0  0  0  0  0  0
    2.6449    2.4156    1.4135 H   0  0  0  0  0  0  0  0  0  0  0  0
    0.4022    4.7048   -0.2190 H   0  0  0  0  0  0  0  0  0  0  0  0
    2.0909    4.3776   -0.5336 H   0  0  0  0  0  0  0  0  0  0  0  0
    1.5202    4.5021    1.1442 H   0  0  0  0  0  0  0  0  0  0  0  0
    2.6055    1.2311   -1.4365 H   0  0  0  0  0  0  0  0  0  0  0  0
    3.4570    2.6971   -1.0080 H   0  0  0  0  0  0  0  0  0  0  0  0
   -4.5711   -2.6482    1.9787 H   0  0  0  0  0  0  0  0  0  0  0  0
    3.3916   -0.9040   -0.6898 H   0  0  0  0  0  0  0  0  0  0  0  0
    5.4745    2.6604    0.4003 H   0  0  0  0  0  0  0  0  0  0  0  0
   -7.1218    3.0628   -0.1685 H   0  0  0  0  0  0  0  0  0  0  0  0
   -6.2350    2.1100   -1.3508 H   0  0  0  0  0  0  0  0  0  0  0  0
   -5.3712    2.9991   -0.0163 H   0  0  0  0  0  0  0  0  0  0  0  0
    7.4094    1.4016    1.0679 H   0  0  0  0  0  0  0  0  0  0  0  0
   -6.7126   -3.0355    2.3862 H   0  0  0  0  0  0  0  0  0  0  0  0
   -5.8457   -2.1482    3.7185 H   0  0  0  0  0  0  0  0  0  0  0  0
   -7.5989   -2.0983    3.5823 H   0  0  0  0  0  0  0  0  0  0  0  0
    3.3351   -2.9555    0.1109 H   0  0  0  0  0  0  0  0  0  0  0  0
    4.0018   -2.8273   -1.5784 H   0  0  0  0  0  0  0  0  0  0  0  0
    4.3442   -4.2259   -0.5683 H   0  0  0  0  0  0  0  0  0  0  0  0
    9.5393   -1.2636    1.7065 H   0  0  0  0  0  0  0  0  0  0  0  0
    8.5128   -0.0025    2.3777 H   0  0  0  0  0  0  0  0  0  0  0  0
    9.1795    0.1254    0.6887 H   0  0  0  0  0  0  0  0  0  0  0  0
  1 19  1  0  0  0  0
  1 28  1  0  0  0  0
  2 23  1  0  0  0  0
  2 31  1  0  0  0  0
  3 27  1  0  0  0  0
  3 32  1  0  0  0  0
  4 30  1  0  0  0  0
  4 33  1  0  0  0  0
  5 12  1  0  0  0  0
  5 18  1  0  0  0  0
  5 20  1  0  0  0  0
  6 15  3  0  0  0  0
  7  8  1  0  0  0  0
  7  9  1  0  0  0  0
  7 11  1  0  0  0  0
  7 15  1  0  0  0  0
  8 13  1  0  0  0  0
  8 14  1  0  0  0  0
  8 34  1  0  0  0  0
  9 10  1  0  0  0  0
  9 35  1  0  0  0  0
  9 36  1  0  0  0  0
 10 12  1  0  0  0  0
 10 37  1  0  0  0  0
 10 38  1  0  0  0  0
 11 16  2  0  0  0  0
 11 17  1  0  0  0  0
 12 39  1  0  0  0  0
 12 40  1  0  0  0  0
 13 41  1  0  0  0  0
 13 42  1  0  0  0  0
 13 43  1  0  0  0  0
 14 44  1  0  0  0  0
 14 45  1  0  0  0  0
 14 46  1  0  0  0  0
 16 19  1  0  0  0  0
 16 47  1  0  0  0  0
 17 21  2  0  0  0  0
 17 48  1  0  0  0  0
 18 22  1  0  0  0  0
 18 49  1  0  0  0  0
 18 50  1  0  0  0  0
 19 23  2  0  0  0  0
 20 51  1  0  0  0  0
 20 52  1  0  0  0  0
 20 53  1  0  0  0  0
 21 23  1  0  0  0  0
 21 56  1  0  0  0  0
 22 24  1  0  0  0  0
 22 54  1  0  0  0  0
 22 55  1  0  0  0  0
 24 25  2  0  0  0  0
 24 26  1  0  0  0  0
 25 27  1  0  0  0  0
 25 57  1  0  0  0  0
 26 29  2  0  0  0  0
 26 58  1  0  0  0  0
 27 30  2  0  0  0  0
 28 59  1  0  0  0  0
 28 60  1  0  0  0  0
 28 61  1  0  0  0  0
 29 30  1  0  0  0  0
 29 62  1  0  0  0  0
 31 63  1  0  0  0  0
 31 64  1  0  0  0  0
 31 65  1  0  0  0  0
 32 66  1  0  0  0  0
 32 67  1  0  0  0  0
 32 68  1  0  0  0  0
 33 69  1  0  0  0  0
 33 70  1  0  0  0  0
 33 71  1  0  0  0  0
M  END
> <PUBCHEM_COMPOUND_CID>
92305

> <PUBCHEM_CONFORMER_RMSD>
1.2

> <PUBCHEM_CONFORMER_DIVERSEORDER>
3
23
122
16
123
82
107
102
92
134
130
63
129
127
105
59
47
60
45
25
11
48
104
28
136
27
61
98
20
53
83
117
111
73
76
52
128
19
120
32
58
115
24
1
132
90
126
55
21
41
138
103
135
80
95
131
2
113
67
51
50
118
72
64
121
13
31
119
110
68
106
44
43
94
30
87
114
125
74
96
15
99
4
84
77
57
36
46
35
56
70
65
26
79
97
34
91
100
17
42
93
54
69
62
49
40
81
18
12
124
7
8
89
116
108
85
14
22
37
66
101
137
112
39
71
29
6
88
10
33
75
5
109
38
86
9
133
78

> <PUBCHEM_MMFF94_PARTIAL_CHARGES>
34
1 -0.36
11 -0.14
12 0.27
15 0.36
16 -0.15
17 -0.15
18 0.27
19 0.08
2 -0.36
20 0.27
21 -0.15
22 0.14
23 0.08
24 -0.14
25 -0.15
26 -0.15
27 0.08
28 0.28
29 -0.15
3 -0.36
30 0.08
31 0.28
32 0.28
33 0.28
4 -0.36
47 0.15
48 0.15
5 -0.81
56 0.15
57 0.15
58 0.15
6 -0.56
62 0.15
7 0.34

> <PUBCHEM_EFFECTIVE_ROTOR_COUNT>
13

> <PUBCHEM_PHARMACOPHORE_FEATURES>
10
1 1 acceptor
1 2 acceptor
1 3 acceptor
1 4 acceptor
1 5 cation
1 6 acceptor
3 8 13 14 hydrophobe
4 7 8 9 10 hydrophobe
6 11 16 17 19 21 23 rings
6 24 25 26 27 29 30 rings

> <PUBCHEM_HEAVY_ATOM_COUNT>
33

> <PUBCHEM_ATOM_DEF_STEREO_COUNT>
1

> <PUBCHEM_ATOM_UDEF_STEREO_COUNT>
0

> <PUBCHEM_BOND_DEF_STEREO_COUNT>
0

> <PUBCHEM_BOND_UDEF_STEREO_COUNT>
0

> <PUBCHEM_ISOTOPIC_ATOM_COUNT>
0

> <PUBCHEM_COMPONENT_COUNT>
1

> <PUBCHEM_CACTVS_TAUTO_COUNT>
1

> <PUBCHEM_CONFORMER_ID>
0001689100000003

> <PUBCHEM_MMFF94_ENERGY>
125.471

> <PUBCHEM_FEATURE_SELFOVERLAP>
50.777

> <PUBCHEM_SHAPE_FINGERPRINT>
10319926 262 18113912545897177031
11135609 12 18335417963906415408
11135926 11 18121771988484190452
11387372 6 17749958898599105651
12166972 35 17530965792003157996
12422481 6 17489033651696277540
12788726 201 17560816432705886864
13673619 4 17676489483800389993
13782708 43 17531245101350877227
14394314 77 18131344211696962736
14400156 162 18187096061633101209
14840074 17 17704070681538333470
15021287 119 18343298206376133653
15064986 96 18271253742232428107
15183329 4 16056875814797497715
15537594 2 18059856186357097172
20511986 3 17346587621546321240
20554085 129 14836135321173152175
21315763 178 18060129969031406812
21403212 168 17846221047184253841
21424621 283 14548480002529899963
4098825 35 17603586335688864116
4461854 278 18131634491995297678
46194498 28 17168424982359421420
54039377 194 18335143086157473430
6009941 240 18187363186612800593
6691757 9 16487253296645978229
999808 66 18187083978993206984

> <PUBCHEM_SHAPE_MULTIPOLES>
645.69
21.39
3.36
2.47
21.3
1.47
-1.76
-7.49
13.83
1.26
0.45
-5.06
-1.39
1.5

> <PUBCHEM_SHAPE_SELFOVERLAP>
1327.393

> <PUBCHEM_SHAPE_VOLUME>
372.5

> <PUBCHEM_COORDINATE_TYPE>
2
5
10

$$$$