11565665
  -OEChem-03242010103D

 42 43  0     0  0  0  0  0  0999 V2000
   -5.0540   -1.0164   -0.1635 O   0  0  0  0  0  0  0  0  0  0  0  0
    5.3340    1.7929   -1.0358 O   0  0  0  0  0  0  0  0  0  0  0  0
    4.2238   -2.4975    0.7375 O   0  0  0  0  0  0  0  0  0  0  0  0
   -5.6859    1.5410    0.7228 O   0  0  0  0  0  0  0  0  0  0  0  0
   -1.7164    0.3769    0.3677 C   0  0  0  0  0  0  0  0  0  0  0  0
    2.1402    0.4116    0.0476 C   0  0  0  0  0  0  0  0  0  0  0  0
   -4.0690   -0.1321    0.1581 C   0  0  0  0  0  0  0  0  0  0  0  0
   -2.7340   -0.5194    0.0408 C   0  0  0  0  0  0  0  0  0  0  0  0
   -0.3244   -0.0261    0.2446 C   0  0  0  0  0  0  0  0  0  0  0  0
    0.7284    0.8205    0.1529 C   0  0  0  0  0  0  0  0  0  0  0  0
    2.5091   -0.8621    0.4480 C   0  0  0  0  0  0  0  0  0  0  0  0
    3.0710    1.3092   -0.4498 C   0  0  0  0  0  0  0  0  0  0  0  0
   -2.0339    1.6605    0.8121 C   0  0  0  0  0  0  0  0  0  0  0  0
    4.4075    0.9223   -0.5494 C   0  0  0  0  0  0  0  0  0  0  0  0
    3.8456   -1.2492    0.3483 C   0  0  0  0  0  0  0  0  0  0  0  0
   -4.3861    1.1515    0.6026 C   0  0  0  0  0  0  0  0  0  0  0  0
   -3.3685    2.0478    0.9294 C   0  0  0  0  0  0  0  0  0  0  0  0
    4.7949   -0.3570   -0.1504 C   0  0  0  0  0  0  0  0  0  0  0  0
   -5.0702   -1.5103   -1.5014 C   0  0  0  0  0  0  0  0  0  0  0  0
   -6.4965   -1.8367   -1.8894 C   0  0  0  0  0  0  0  0  0  0  0  0
    6.6821    1.3317   -1.1103 C   0  0  0  0  0  0  0  0  0  0  0  0
    3.2022   -3.3590    1.2377 C   0  0  0  0  0  0  0  0  0  0  0  0
   -2.4910   -1.5238   -0.2992 H   0  0  0  0  0  0  0  0  0  0  0  0
   -0.1753   -1.1015    0.2046 H   0  0  0  0  0  0  0  0  0  0  0  0
    0.5758    1.8962    0.1368 H   0  0  0  0  0  0  0  0  0  0  0  0
    1.7614   -1.5258    0.8612 H   0  0  0  0  0  0  0  0  0  0  0  0
    2.7790    2.3080   -0.7650 H   0  0  0  0  0  0  0  0  0  0  0  0
   -1.2779    2.3852    1.0995 H   0  0  0  0  0  0  0  0  0  0  0  0
   -3.6024    3.0490    1.2816 H   0  0  0  0  0  0  0  0  0  0  0  0
    5.8171   -0.7168   -0.2033 H   0  0  0  0  0  0  0  0  0  0  0  0
   -4.6677   -0.7664   -2.2002 H   0  0  0  0  0  0  0  0  0  0  0  0
   -4.4543   -2.4146   -1.5544 H   0  0  0  0  0  0  0  0  0  0  0  0
   -6.5444   -2.2300   -2.9087 H   0  0  0  0  0  0  0  0  0  0  0  0
   -6.9229   -2.5771   -1.2045 H   0  0  0  0  0  0  0  0  0  0  0  0
   -7.1270   -0.9436   -1.8251 H   0  0  0  0  0  0  0  0  0  0  0  0
   -5.7132    2.4591    1.0427 H   0  0  0  0  0  0  0  0  0  0  0  0
    6.7813    0.4880   -1.8017 H   0  0  0  0  0  0  0  0  0  0  0  0
    7.0856    1.1053   -0.1175 H   0  0  0  0  0  0  0  0  0  0  0  0
    7.2818    2.1515   -1.5191 H   0  0  0  0  0  0  0  0  0  0  0  0
    2.7628   -2.9687    2.1621 H   0  0  0  0  0  0  0  0  0  0  0  0
    3.6799   -4.3112    1.4911 H   0  0  0  0  0  0  0  0  0  0  0  0
    2.4469   -3.5761    0.4746 H   0  0  0  0  0  0  0  0  0  0  0  0
  1  7  1  0  0  0  0
  1 19  1  0  0  0  0
  2 14  1  0  0  0  0
  2 21  1  0  0  0  0
  3 15  1  0  0  0  0
  3 22  1  0  0  0  0
  4 16  1  0  0  0  0
  4 36  1  0  0  0  0
  5  8  2  0  0  0  0
  5  9  1  0  0  0  0
  5 13  1  0  0  0  0
  6 10  1  0  0  0  0
  6 11  2  0  0  0  0
  6 12  1  0  0  0  0
  7  8  1  0  0  0  0
  7 16  2  0  0  0  0
  8 23  1  0  0  0  0
  9 10  2  0  0  0  0
  9 24  1  0  0  0  0
 10 25  1  0  0  0  0
 11 15  1  0  0  0  0
 11 26  1  0  0  0  0
 12 14  2  0  0  0  0
 12 27  1  0  0  0  0
 13 17  2  0  0  0  0
 13 28  1  0  0  0  0
 14 18  1  0  0  0  0
 15 18  2  0  0  0  0
 16 17  1  0  0  0  0
 17 29  1  0  0  0  0
 18 30  1  0  0  0  0
 19 20  1  0  0  0  0
 19 31  1  0  0  0  0
 19 32  1  0  0  0  0
 20 33  1  0  0  0  0
 20 34  1  0  0  0  0
 20 35  1  0  0  0  0
 21 37  1  0  0  0  0
 21 38  1  0  0  0  0
 21 39  1  0  0  0  0
 22 40  1  0  0  0  0
 22 41  1  0  0  0  0
 22 42  1  0  0  0  0
M  END
> <PUBCHEM_COMPOUND_CID>
11565665

> <PUBCHEM_CONFORMER_RMSD>
0.8

> <PUBCHEM_CONFORMER_DIVERSEORDER>
3
4
6
1
13
7
8
11
2
12
5
9
10

> <PUBCHEM_MMFF94_PARTIAL_CHARGES>
30
1 -0.36
10 -0.18
11 -0.15
12 -0.15
13 -0.15
14 0.08
15 0.08
16 0.08
17 -0.15
18 -0.15
19 0.28
2 -0.36
21 0.28
22 0.28
23 0.15
24 0.15
25 0.15
26 0.15
27 0.15
28 0.15
29 0.15
3 -0.36
30 0.15
36 0.45
4 -0.53
5 0.03
6 0.03
7 0.08
8 -0.15
9 -0.18

> <PUBCHEM_EFFECTIVE_ROTOR_COUNT>
6

> <PUBCHEM_PHARMACOPHORE_FEATURES>
6
1 1 acceptor
1 2 acceptor
1 3 acceptor
1 4 donor
6 5 7 8 13 16 17 rings
6 6 11 12 14 15 18 rings

> <PUBCHEM_HEAVY_ATOM_COUNT>
22

> <PUBCHEM_ATOM_DEF_STEREO_COUNT>
0

> <PUBCHEM_ATOM_UDEF_STEREO_COUNT>
0

> <PUBCHEM_BOND_DEF_STEREO_COUNT>
1

> <PUBCHEM_BOND_UDEF_STEREO_COUNT>
0

> <PUBCHEM_ISOTOPIC_ATOM_COUNT>
0

> <PUBCHEM_COMPONENT_COUNT>
1

> <PUBCHEM_CACTVS_TAUTO_COUNT>
3

> <PUBCHEM_CONFORMER_ID>
00B07A6100000003

> <PUBCHEM_MMFF94_ENERGY>
88.0619

> <PUBCHEM_FEATURE_SELFOVERLAP>
30.446

> <PUBCHEM_SHAPE_FINGERPRINT>
10366900 7 18340207491626425600
105312 117 15140955176051554643
10595046 47 18410857650567011001
10622 236 18269254812665706319
10693767 8 18269846329216695222
10912923 1 18341333314197437425
11135609 187 18187918504525004711
11524674 6 14692576546279195373
12107183 9 17688876328364352064
12236239 1 18342179960068883228
12596602 18 17774999090156581082
12788726 201 18131069363796715159
12839892 36 17774995748714729431
13167823 11 18411702045463975003
13533116 47 18409727348334533931
13631057 29 18192719057843483531
14528608 73 18410862079263927044
14576447 43 18413105091183920076
15250474 111 18411972555590262491
16993427 108 16881300487736664834
17834072 33 18411140229561300256
17857418 61 18340478993895036683
18335252 98 18041574623844249467
18681886 176 17632578292718091980
200 152 18410576201829518137
20511986 3 18411688885826598172
20645477 70 18040716927212205194
21033648 29 14852161918149206516
21054139 6 18339361967638404606
21065198 48 18411983537625693024
21267235 1 18059016215645621951
21728266 224 18201710735513281627
220451 1 18343308045982230369
22224240 67 18336260233116314824
2297311 6 17203337727472725785
2303208 19 15482673480736090620
23081809 10 18410855455917636169
23402539 116 18344144791774665525
23522609 53 18128564654781428433
23559900 14 17989202659519164185
300161 21 18334859406918612784
3004659 81 18340492145396048914
314194 84 18410295817531771363
34797466 226 16988571268392485888
4073 2 17968390008095454018
504579 68 18411138034695667749
5104073 3 18342460318200980633
573450 72 18200872873050364345
67856867 119 18412541016165676784
7495541 125 17703784834021327408
8272917 22 18262245430659947450

> <PUBCHEM_SHAPE_MULTIPOLES>
429.27
16.76
2.63
1.23
3.32
1.65
-0.35
1.26
-6.36
-0.92
0.59
0.75
0.42
-4.5

> <PUBCHEM_SHAPE_SELFOVERLAP>
907.087

> <PUBCHEM_SHAPE_VOLUME>
242.5

> <PUBCHEM_COORDINATE_TYPE>
2
5
10

$$$$