507274
  -OEChem-03242010103D

 84 90  0     1  0  0  0  0  0999 V2000
   -0.0021    3.2380   -1.7192 O   0  0  0  0  0  0  0  0  0  0  0  0
   -0.0028   -3.3369    2.3904 O   0  0  0  0  0  0  0  0  0  0  0  0
   -3.4626   -1.4142   -1.1963 O   0  0  0  0  0  0  0  0  0  0  0  0
    3.4434    1.7323   -0.7430 O   0  0  0  0  0  0  0  0  0  0  0  0
   -3.6543   -1.8742    1.0390 O   0  0  0  0  0  0  0  0  0  0  0  0
    3.6811    1.4440    1.5165 O   0  0  0  0  0  0  0  0  0  0  0  0
   -1.7447   -0.8506    0.2148 N   0  0  0  0  0  0  0  0  0  0  0  0
    1.7497    0.7414    0.4442 N   0  0  0  0  0  0  0  0  0  0  0  0
   -0.4658    1.1317   -0.6992 C   0  0  0  0  0  0  0  0  0  0  0  0
    0.4754   -1.2411    1.3556 C   0  0  0  0  0  0  0  0  0  0  0  0
    0.4472   -0.8442   -1.0351 C   0  0  0  0  0  0  0  0  0  0  0  0
   -0.4474    0.7371    1.6920 C   0  0  0  0  0  0  0  0  0  0  0  0
   -1.0092   -0.3029   -0.9532 C   0  0  1  0  0  0  0  0  0  0  0  0
    0.9901    0.5974   -0.8238 C   0  0  2  0  0  0  0  0  0  0  0  0
   -0.9825   -0.7122    1.4837 C   0  0  1  0  0  0  0  0  0  0  0  0
    1.0111    0.1996    1.6154 C   0  0  2  0  0  0  0  0  0  0  0  0
   -0.8060    1.8123    0.6453 C   0  0  2  0  0  0  0  0  0  0  0  0
    0.8116   -1.9204    0.0117 C   0  0  1  0  0  0  0  0  0  0  0  0
   -0.7733    2.0579   -1.8696 C   0  0  0  0  0  0  0  0  0  0  0  0
    0.7881   -2.1679    2.5243 C   0  0  0  0  0  0  0  0  0  0  0  0
   -2.2478    2.2913    0.6795 C   0  0  0  0  0  0  0  0  0  0  0  0
    2.2532   -2.3783   -0.1369 C   0  0  0  0  0  0  0  0  0  0  0  0
   -3.0123   -1.4175    0.0958 C   0  0  0  0  0  0  0  0  0  0  0  0
    3.0181    1.3167    0.4893 C   0  0  0  0  0  0  0  0  0  0  0  0
   -2.5591    3.5947    0.2920 C   0  0  0  0  0  0  0  0  0  0  0  0
    2.5610   -3.4529   -0.9715 C   0  0  0  0  0  0  0  0  0  0  0  0
   -3.2601    1.4276    1.0979 C   0  0  0  0  0  0  0  0  0  0  0  0
    3.2685   -1.7239    0.5606 C   0  0  0  0  0  0  0  0  0  0  0  0
   -3.8825    4.0344    0.3231 C   0  0  0  0  0  0  0  0  0  0  0  0
    3.8840   -3.8731   -1.1082 C   0  0  0  0  0  0  0  0  0  0  0  0
   -4.5835    1.8674    1.1290 C   0  0  0  0  0  0  0  0  0  0  0  0
    4.5915   -2.1442    0.4237 C   0  0  0  0  0  0  0  0  0  0  0  0
   -4.7580   -1.9849   -1.4115 C   0  0  0  0  0  0  0  0  0  0  0  0
    4.7378    2.3428   -0.7876 C   0  0  0  0  0  0  0  0  0  0  0  0
   -4.8946    3.1707    0.7415 C   0  0  0  0  0  0  0  0  0  0  0  0
    4.8992   -3.2188   -0.4107 C   0  0  0  0  0  0  0  0  0  0  0  0
   -5.7785   -1.1978   -0.5906 C   0  0  0  0  0  0  0  0  0  0  0  0
   -5.0675   -1.8739   -2.9029 C   0  0  0  0  0  0  0  0  0  0  0  0
   -4.7226   -3.4494   -0.9775 C   0  0  0  0  0  0  0  0  0  0  0  0
    4.7191    3.5880    0.0979 C   0  0  0  0  0  0  0  0  0  0  0  0
    5.0182    2.7212   -2.2404 C   0  0  0  0  0  0  0  0  0  0  0  0
    5.7692    1.3331   -0.2862 C   0  0  0  0  0  0  0  0  0  0  0  0
    0.6647   -1.2170   -2.0472 H   0  0  0  0  0  0  0  0  0  0  0  0
   -0.6700    1.1124    2.7020 H   0  0  0  0  0  0  0  0  0  0  0  0
   -1.5364   -0.4144   -1.9066 H   0  0  0  0  0  0  0  0  0  0  0  0
    1.5312    0.9483   -1.7088 H   0  0  0  0  0  0  0  0  0  0  0  0
   -1.5421   -1.0904    2.3474 H   0  0  0  0  0  0  0  0  0  0  0  0
    1.5602    0.3360    2.5545 H   0  0  0  0  0  0  0  0  0  0  0  0
   -0.1563    2.6811    0.8194 H   0  0  0  0  0  0  0  0  0  0  0  0
    0.1624   -2.7950   -0.1322 H   0  0  0  0  0  0  0  0  0  0  0  0
   -0.4876    1.5982   -2.8238 H   0  0  0  0  0  0  0  0  0  0  0  0
   -1.8337    2.3107   -1.9546 H   0  0  0  0  0  0  0  0  0  0  0  0
    1.8359   -2.4657    2.5930 H   0  0  0  0  0  0  0  0  0  0  0  0
    0.5284   -1.7004    3.4819 H   0  0  0  0  0  0  0  0  0  0  0  0
   -0.2066    3.8123   -2.4766 H   0  0  0  0  0  0  0  0  0  0  0  0
    0.1943   -3.9059    3.1538 H   0  0  0  0  0  0  0  0  0  0  0  0
   -1.7830    4.2868   -0.0213 H   0  0  0  0  0  0  0  0  0  0  0  0
    1.7791   -3.9696   -1.5214 H   0  0  0  0  0  0  0  0  0  0  0  0
   -3.0835    0.4958    1.6012 H   0  0  0  0  0  0  0  0  0  0  0  0
    3.1066   -0.9992    1.3369 H   0  0  0  0  0  0  0  0  0  0  0  0
   -4.1242    5.0511    0.0274 H   0  0  0  0  0  0  0  0  0  0  0  0
    4.1235   -4.7108   -1.7565 H   0  0  0  0  0  0  0  0  0  0  0  0
   -5.3661    1.2137    1.5033 H   0  0  0  0  0  0  0  0  0  0  0  0
    5.3783   -1.6607    0.9957 H   0  0  0  0  0  0  0  0  0  0  0  0
   -5.9234    3.5170    0.7779 H   0  0  0  0  0  0  0  0  0  0  0  0
    5.9282   -3.5514   -0.5103 H   0  0  0  0  0  0  0  0  0  0  0  0
   -5.7459   -1.3707    0.4869 H   0  0  0  0  0  0  0  0  0  0  0  0
   -5.6560   -0.1219   -0.7536 H   0  0  0  0  0  0  0  0  0  0  0  0
   -6.7969   -1.4629   -0.9000 H   0  0  0  0  0  0  0  0  0  0  0  0
   -4.3109   -2.4000   -3.4964 H   0  0  0  0  0  0  0  0  0  0  0  0
   -5.0424   -0.8274   -3.2277 H   0  0  0  0  0  0  0  0  0  0  0  0
   -6.0504   -2.2893   -3.1477 H   0  0  0  0  0  0  0  0  0  0  0  0
   -3.8169   -3.9457   -1.3450 H   0  0  0  0  0  0  0  0  0  0  0  0
   -4.7585   -3.6039    0.1038 H   0  0  0  0  0  0  0  0  0  0  0  0
   -5.5880   -3.9889   -1.3808 H   0  0  0  0  0  0  0  0  0  0  0  0
    5.5798    4.2295   -0.1260 H   0  0  0  0  0  0  0  0  0  0  0  0
    4.7761    3.3842    1.1701 H   0  0  0  0  0  0  0  0  0  0  0  0
    3.8094    4.1758   -0.0714 H   0  0  0  0  0  0  0  0  0  0  0  0
    5.9982    3.1951   -2.3569 H   0  0  0  0  0  0  0  0  0  0  0  0
    4.9819    1.8360   -2.8858 H   0  0  0  0  0  0  0  0  0  0  0  0
    4.2527    3.4096   -2.6166 H   0  0  0  0  0  0  0  0  0  0  0  0
    6.7828    1.6796   -0.5217 H   0  0  0  0  0  0  0  0  0  0  0  0
    5.6308    0.3639   -0.7772 H   0  0  0  0  0  0  0  0  0  0  0  0
    5.7637    1.1564    0.7913 H   0  0  0  0  0  0  0  0  0  0  0  0
  1 19  1  0  0  0  0
  1 55  1  0  0  0  0
  2 20  1  0  0  0  0
  2 56  1  0  0  0  0
  3 23  1  0  0  0  0
  3 33  1  0  0  0  0
  4 24  1  0  0  0  0
  4 34  1  0  0  0  0
  5 23  2  0  0  0  0
  6 24  2  0  0  0  0
  7 13  1  0  0  0  0
  7 15  1  0  0  0  0
  7 23  1  0  0  0  0
  8 14  1  0  0  0  0
  8 16  1  0  0  0  0
  8 24  1  0  0  0  0
  9 13  1  0  0  0  0
  9 14  1  0  0  0  0
  9 17  1  0  0  0  0
  9 19  1  0  0  0  0
 10 15  1  0  0  0  0
 10 16  1  0  0  0  0
 10 18  1  0  0  0  0
 10 20  1  0  0  0  0
 11 13  1  0  0  0  0
 11 14  1  0  0  0  0
 11 18  1  0  0  0  0
 11 43  1  0  0  0  0
 12 15  1  0  0  0  0
 12 16  1  0  0  0  0
 12 17  1  0  0  0  0
 12 44  1  0  0  0  0
 13 45  1  0  0  0  0
 14 46  1  0  0  0  0
 15 47  1  0  0  0  0
 16 48  1  0  0  0  0
 17 21  1  0  0  0  0
 17 49  1  0  0  0  0
 18 22  1  0  0  0  0
 18 50  1  0  0  0  0
 19 51  1  0  0  0  0
 19 52  1  0  0  0  0
 20 53  1  0  0  0  0
 20 54  1  0  0  0  0
 21 25  2  0  0  0  0
 21 27  1  0  0  0  0
 22 26  2  0  0  0  0
 22 28  1  0  0  0  0
 25 29  1  0  0  0  0
 25 57  1  0  0  0  0
 26 30  1  0  0  0  0
 26 58  1  0  0  0  0
 27 31  2  0  0  0  0
 27 59  1  0  0  0  0
 28 32  2  0  0  0  0
 28 60  1  0  0  0  0
 29 35  2  0  0  0  0
 29 61  1  0  0  0  0
 30 36  2  0  0  0  0
 30 62  1  0  0  0  0
 31 35  1  0  0  0  0
 31 63  1  0  0  0  0
 32 36  1  0  0  0  0
 32 64  1  0  0  0  0
 33 37  1  0  0  0  0
 33 38  1  0  0  0  0
 33 39  1  0  0  0  0
 34 40  1  0  0  0  0
 34 41  1  0  0  0  0
 34 42  1  0  0  0  0
 35 65  1  0  0  0  0
 36 66  1  0  0  0  0
 37 67  1  0  0  0  0
 37 68  1  0  0  0  0
 37 69  1  0  0  0  0
 38 70  1  0  0  0  0
 38 71  1  0  0  0  0
 38 72  1  0  0  0  0
 39 73  1  0  0  0  0
 39 74  1  0  0  0  0
 39 75  1  0  0  0  0
 40 76  1  0  0  0  0
 40 77  1  0  0  0  0
 40 78  1  0  0  0  0
 41 79  1  0  0  0  0
 41 80  1  0  0  0  0
 41 81  1  0  0  0  0
 42 82  1  0  0  0  0
 42 83  1  0  0  0  0
 42 84  1  0  0  0  0
M  END
> <PUBCHEM_COMPOUND_CID>
507274

> <PUBCHEM_CONFORMER_RMSD>
1.2

> <PUBCHEM_CONFORMER_DIVERSEORDER>
1
9
2
3
6
8
7
4
5

> <PUBCHEM_MMFF94_PARTIAL_CHARGES>
44
1 -0.68
13 0.22
14 0.22
15 0.22
16 0.22
17 0.14
18 0.14
19 0.28
2 -0.68
20 0.28
21 -0.14
22 -0.14
23 0.78
24 0.78
25 -0.15
26 -0.15
27 -0.15
28 -0.15
29 -0.15
3 -0.43
30 -0.15
31 -0.15
32 -0.15
33 0.28
34 0.28
35 -0.15
36 -0.15
4 -0.43
5 -0.57
55 0.4
56 0.4
57 0.15
58 0.15
59 0.15
6 -0.57
60 0.15
61 0.15
62 0.15
63 0.15
64 0.15
65 0.15
66 0.15
7 -0.51
8 -0.51

> <PUBCHEM_EFFECTIVE_ROTOR_COUNT>
10.8

> <PUBCHEM_PHARMACOPHORE_FEATURES>
16
1 1 acceptor
1 1 donor
1 2 acceptor
1 2 donor
1 5 acceptor
1 6 acceptor
4 10 12 15 16 rings
4 33 37 38 39 hydrophobe
4 34 40 41 42 hydrophobe
4 9 11 13 14 rings
6 21 25 27 29 31 35 rings
6 22 26 28 30 32 36 rings
6 7 10 11 13 15 18 rings
6 7 9 12 13 15 17 rings
6 8 10 11 14 16 18 rings
6 8 9 12 14 16 17 rings

> <PUBCHEM_HEAVY_ATOM_COUNT>
42

> <PUBCHEM_ATOM_DEF_STEREO_COUNT>
2

> <PUBCHEM_ATOM_UDEF_STEREO_COUNT>
4

> <PUBCHEM_BOND_DEF_STEREO_COUNT>
0

> <PUBCHEM_BOND_UDEF_STEREO_COUNT>
0

> <PUBCHEM_ISOTOPIC_ATOM_COUNT>
0

> <PUBCHEM_COMPONENT_COUNT>
1

> <PUBCHEM_CACTVS_TAUTO_COUNT>
1

> <PUBCHEM_CONFORMER_ID>
0007BD8A00000001

> <PUBCHEM_MMFF94_ENERGY>
170.2944

> <PUBCHEM_FEATURE_SELFOVERLAP>
94.246

> <PUBCHEM_SHAPE_FINGERPRINT>
10050765 1 18341333305591626324
10190108 129 18127141977160780235
10190206 1 18268436917711320588
10863032 1 18202001001760565809
10906281 52 17823424966261502516
1100329 8 18193563259513976168
11115154 58 18197761389179535087
11135609 187 18117554248224798772
11227688 84 17983854764111835351
11421498 54 18269828890915749719
11513181 2 18341903986539279286
11578080 2 18269294398914744376
12058002 1 17895771714640502583
12633046 712 17059767815470217291
12788726 201 18265614471104375936
13140716 1 18187939313145629968
13617811 41 18124863805694249637
13636023 20 17825637158493725199
13782708 43 17202777028034461636
13911987 19 17903644325301476549
140371 6 18044386147304997377
15082195 135 18409160039242781172
15276724 80 18342461431198883061
15361156 5 18189633652522743806
18393751 57 17623541539693375888
18681886 176 17908140971598574617
20691752 17 17749109954940695674
23559900 14 17914608358911510075
23576562 1 18265062327251586116
249057 3 18053386500313192838
3493558 16 18197509432648497048
4573279 73 18413389860215885404
6086070 43 17561078098966218312
70251023 43 18337666412918116203

> <PUBCHEM_SHAPE_MULTIPOLES>
819.16
11.62
5.56
2.04
0.13
0.51
0.14
0.46
3.91
-0.75
1.02
0.62
-0.59
-2.87

> <PUBCHEM_SHAPE_SELFOVERLAP>
1816.991

> <PUBCHEM_SHAPE_VOLUME>
429.7

> <PUBCHEM_COORDINATE_TYPE>
2
5
10

$$$$