53249089
  -OEChem-03242010103D

 40 42  0     0  0  0  0  0  0999 V2000
   -6.5759   -0.4441   -0.4235 Cl  0  0  0  0  0  0  0  0  0  0  0  0
   -0.7035    2.3112    0.9941 O   0  0  0  0  0  0  0  0  0  0  0  0
    5.9903    0.4431   -0.0367 O   0  0  0  0  0  0  0  0  0  0  0  0
    4.3113    0.6294    1.4801 O   0  0  0  0  0  0  0  0  0  0  0  0
    0.2325    0.4340    0.1438 N   0  0  0  0  0  0  0  0  0  0  0  0
    1.4766    0.9433   -0.1772 C   0  0  0  0  0  0  0  0  0  0  0  0
    2.3415   -0.0908   -0.4333 C   0  0  0  0  0  0  0  0  0  0  0  0
    1.6271   -1.2991   -0.2593 C   0  0  0  0  0  0  0  0  0  0  0  0
    0.3156   -0.9621    0.1035 C   0  0  0  0  0  0  0  0  0  0  0  0
    1.7851    2.3922   -0.2303 C   0  0  0  0  0  0  0  0  0  0  0  0
    3.7637    0.0356   -0.8170 C   0  0  0  0  0  0  0  0  0  0  0  0
    1.9881   -2.6575   -0.3794 C   0  0  0  0  0  0  0  0  0  0  0  0
   -0.6446   -1.9652    0.3382 C   0  0  0  0  0  0  0  0  0  0  0  0
   -0.8954    1.2118    0.4851 C   0  0  0  0  0  0  0  0  0  0  0  0
    1.2485    3.0634   -1.4962 C   0  0  0  0  0  0  0  0  0  0  0  0
    1.0350   -3.6492   -0.1399 C   0  0  0  0  0  0  0  0  0  0  0  0
   -0.2636   -3.3051    0.2128 C   0  0  0  0  0  0  0  0  0  0  0  0
   -2.2959    0.8045    0.2610 C   0  0  0  0  0  0  0  0  0  0  0  0
    4.6844    0.3987    0.3382 C   0  0  0  0  0  0  0  0  0  0  0  0
   -2.7468    0.5381   -1.0319 C   0  0  0  0  0  0  0  0  0  0  0  0
   -3.1687    0.6846    1.3424 C   0  0  0  0  0  0  0  0  0  0  0  0
   -4.0702    0.1521   -1.2435 C   0  0  0  0  0  0  0  0  0  0  0  0
   -4.4923    0.2986    1.1309 C   0  0  0  0  0  0  0  0  0  0  0  0
   -4.9431    0.0323   -0.1619 C   0  0  0  0  0  0  0  0  0  0  0  0
    2.8713    2.5442   -0.2235 H   0  0  0  0  0  0  0  0  0  0  0  0
    1.4456    2.9231    0.6631 H   0  0  0  0  0  0  0  0  0  0  0  0
    3.8742    0.8067   -1.5888 H   0  0  0  0  0  0  0  0  0  0  0  0
    4.1302   -0.9044   -1.2445 H   0  0  0  0  0  0  0  0  0  0  0  0
    2.9992   -2.9444   -0.6550 H   0  0  0  0  0  0  0  0  0  0  0  0
   -1.6608   -1.7370    0.6338 H   0  0  0  0  0  0  0  0  0  0  0  0
    1.6596    2.5905   -2.3947 H   0  0  0  0  0  0  0  0  0  0  0  0
    1.5312    4.1209   -1.5097 H   0  0  0  0  0  0  0  0  0  0  0  0
    0.1574    3.0044   -1.5562 H   0  0  0  0  0  0  0  0  0  0  0  0
    1.3123   -4.6957   -0.2309 H   0  0  0  0  0  0  0  0  0  0  0  0
   -0.9951   -4.0873    0.3988 H   0  0  0  0  0  0  0  0  0  0  0  0
   -2.0771    0.6305   -1.8831 H   0  0  0  0  0  0  0  0  0  0  0  0
   -2.8282    0.8868    2.3545 H   0  0  0  0  0  0  0  0  0  0  0  0
   -4.4076   -0.0518   -2.2564 H   0  0  0  0  0  0  0  0  0  0  0  0
   -5.1610    0.2086    1.9831 H   0  0  0  0  0  0  0  0  0  0  0  0
    6.5775    0.6785    0.7131 H   0  0  0  0  0  0  0  0  0  0  0  0
  1 24  1  0  0  0  0
  2 14  2  0  0  0  0
  3 19  1  0  0  0  0
  3 40  1  0  0  0  0
  4 19  2  0  0  0  0
  5  6  1  0  0  0  0
  5  9  1  0  0  0  0
  5 14  1  0  0  0  0
  6  7  2  0  0  0  0
  6 10  1  0  0  0  0
  7  8  1  0  0  0  0
  7 11  1  0  0  0  0
  8  9  1  0  0  0  0
  8 12  2  0  0  0  0
  9 13  2  0  0  0  0
 10 15  1  0  0  0  0
 10 25  1  0  0  0  0
 10 26  1  0  0  0  0
 11 19  1  0  0  0  0
 11 27  1  0  0  0  0
 11 28  1  0  0  0  0
 12 16  1  0  0  0  0
 12 29  1  0  0  0  0
 13 17  1  0  0  0  0
 13 30  1  0  0  0  0
 14 18  1  0  0  0  0
 15 31  1  0  0  0  0
 15 32  1  0  0  0  0
 15 33  1  0  0  0  0
 16 17  2  0  0  0  0
 16 34  1  0  0  0  0
 17 35  1  0  0  0  0
 18 20  2  0  0  0  0
 18 21  1  0  0  0  0
 20 22  1  0  0  0  0
 20 36  1  0  0  0  0
 21 23  2  0  0  0  0
 21 37  1  0  0  0  0
 22 24  2  0  0  0  0
 22 38  1  0  0  0  0
 23 24  1  0  0  0  0
 23 39  1  0  0  0  0
M  END
> <PUBCHEM_COMPOUND_CID>
53249089

> <PUBCHEM_CONFORMER_RMSD>
0.8

> <PUBCHEM_CONFORMER_DIVERSEORDER>
1
12
7
23
27
6
10
21
9
20
2
22
4
15
19
26
8
11
14
18
13
17
25
3
5
16
24

> <PUBCHEM_MMFF94_PARTIAL_CHARGES>
31
1 -0.18
10 0.18
11 0.24
12 -0.15
13 -0.15
14 0.49
16 -0.15
17 -0.15
18 0.09
19 0.66
2 -0.57
20 -0.15
21 -0.15
22 -0.15
23 -0.15
24 0.18
29 0.15
3 -0.65
30 0.15
34 0.15
35 0.15
36 0.15
37 0.15
38 0.15
39 0.15
4 -0.57
40 0.5
5 0.29
6 -0.33
7 -0.18
9 -0.15

> <PUBCHEM_EFFECTIVE_ROTOR_COUNT>
5

> <PUBCHEM_PHARMACOPHORE_FEATURES>
8
1 15 hydrophobe
1 2 acceptor
1 3 acceptor
1 4 acceptor
3 3 4 19 anion
5 5 6 7 8 9 rings
6 18 20 21 22 23 24 rings
6 8 9 12 13 16 17 rings

> <PUBCHEM_HEAVY_ATOM_COUNT>
24

> <PUBCHEM_ATOM_DEF_STEREO_COUNT>
0

> <PUBCHEM_ATOM_UDEF_STEREO_COUNT>
0

> <PUBCHEM_BOND_DEF_STEREO_COUNT>
0

> <PUBCHEM_BOND_UDEF_STEREO_COUNT>
0

> <PUBCHEM_ISOTOPIC_ATOM_COUNT>
0

> <PUBCHEM_COMPONENT_COUNT>
1

> <PUBCHEM_CACTVS_TAUTO_COUNT>
1

> <PUBCHEM_CONFORMER_ID>
032C844100000001

> <PUBCHEM_MMFF94_ENERGY>
58.7578

> <PUBCHEM_FEATURE_SELFOVERLAP>
40.743

> <PUBCHEM_SHAPE_FINGERPRINT>
10090160 65 18410012130414690315
10967382 1 18338525153052853674
1100329 8 18340206418053432088
11578080 2 17827639149581228412
12035758 1 18335975463219271168
12236239 1 17703793596408537041
12553582 1 17905901283861734467
12596602 18 17131836469560427539
12788726 201 17417816089928804979
13052359 8 18335703913595853562
13083527 12 17899962851582676666
13140716 1 18266465493241041288
13583140 156 17168145684308403512
13836976 161 18334579070382087709
13862211 1 18410292484890356818
13911987 19 18262535778327299564
14178342 30 18196092132016219352
14787075 74 17918269878951153080
14790565 3 18338250318291437124
14863182 85 18337965510250708974
15849732 13 18040997367265204420
16728300 4 17243828227003167602
16945 1 18410584976273591372
17349148 13 18410292510338517944
19591789 44 18122350343978328299
20028762 73 18272931660762731294
20645477 70 18334011684223334419
20739085 24 18048903821640475872
20771845 171 17749117664618495574
21033648 29 18339905091733469072
21054139 6 18270674372550475815
21344244 181 17775018885239687175
22224240 67 18343014514968879984
22393880 68 18197222433957903373
22956985 138 17827909634206653130
2334 1 17978801434275875180
23402539 116 18343017779096792316
23557571 272 17168142317845334397
23559900 14 18408880768201211809
23569917 315 18411705374613320878
23569943 247 17771645459481272750
238 59 18044624625991966535
2748010 2 18122922081239281560
283562 15 18342179903939403352
3060560 45 18335423477805348404
3178227 256 18335713775124907033
335352 9 18410577314595222238
34934 24 18058733477511079305
350125 39 18120383304416678267
352729 6 18267321995429285874
404807 14 14902041001608631270
4340502 62 18412823594664009167
4409770 3 15821246436128742225
46194498 28 18040154033346592757
465052 167 17821452373729177608
474 4 18411421726054869991
474229 33 18410293618382083842
484989 97 18121221145700496327
5104073 3 18194691371560955521
5486654 2 18341615936125555596
59554788 191 18190747624973258326
59755656 215 18411136913788480183
6913067 236 18259696800997400213
7495541 125 17458635557024220417

> <PUBCHEM_SHAPE_MULTIPOLES>
473.19
10.5
3.28
1.13
6.71
2.16
0.04
-1.66
-0.02
-2.21
-0.47
0.4
-0.48
-0.19

> <PUBCHEM_SHAPE_SELFOVERLAP>
1025.333

> <PUBCHEM_SHAPE_VOLUME>
259.8

> <PUBCHEM_COORDINATE_TYPE>
2
5
10

$$$$