122181886
  -OEChem-03242010103D

 59 62  0     1  0  0  0  0  0999 V2000
    2.2442    2.6951    0.8925 O   0  0  0  0  0  0  0  0  0  0  0  0
    4.8626   -1.5222   -0.5956 O   0  0  0  0  0  0  0  0  0  0  0  0
    0.8684    2.3920    2.7296 O   0  0  0  0  0  0  0  0  0  0  0  0
    3.5642   -3.6213    0.6825 O   0  0  0  0  0  0  0  0  0  0  0  0
   -2.1172    1.4028   -0.0667 N   0  0  0  0  0  0  0  0  0  0  0  0
    0.7137    1.0631   -0.6903 C   0  0  1  0  0  0  0  0  0  0  0  0
   -0.4004    0.7398   -1.6955 C   0  0  0  0  0  0  0  0  0  0  0  0
   -1.7709    0.8916   -1.3461 C   0  0  0  0  0  0  0  0  0  0  0  0
    0.1894    1.7326    0.5566 C   0  0  0  0  0  0  0  0  0  0  0  0
    1.4731   -0.1797   -0.3279 C   0  0  0  0  0  0  0  0  0  0  0  0
   -1.1237    1.8446    0.7902 C   0  0  0  0  0  0  0  0  0  0  0  0
   -3.5318    1.5237    0.2794 C   0  0  0  0  0  0  0  0  0  0  0  0
   -0.0432    0.2822   -2.9783 C   0  0  0  0  0  0  0  0  0  0  0  0
   -2.7332    0.5411   -2.3126 C   0  0  0  0  0  0  0  0  0  0  0  0
    2.8305   -0.2814   -0.6326 C   0  0  0  0  0  0  0  0  0  0  0  0
    0.8216   -1.2327    0.3144 C   0  0  0  0  0  0  0  0  0  0  0  0
    1.1157    2.3036    1.5370 C   0  0  0  0  0  0  0  0  0  0  0  0
   -1.0199   -0.0504   -3.9111 C   0  0  0  0  0  0  0  0  0  0  0  0
   -4.0776    0.1999    0.7379 C   0  0  0  0  0  0  0  0  0  0  0  0
   -2.3622    0.0744   -3.5769 C   0  0  0  0  0  0  0  0  0  0  0  0
    3.5366   -1.4360   -0.2948 C   0  0  0  0  0  0  0  0  0  0  0  0
    1.5277   -2.3874    0.6519 C   0  0  0  0  0  0  0  0  0  0  0  0
    2.8851   -2.4891    0.3474 C   0  0  0  0  0  0  0  0  0  0  0  0
   -3.2406   -0.7166    1.3745 C   0  0  0  0  0  0  0  0  0  0  0  0
   -5.4205   -0.1122    0.5263 C   0  0  0  0  0  0  0  0  0  0  0  0
    3.2540    3.2784    1.7226 C   0  0  0  0  0  0  0  0  0  0  0  0
   -3.7465   -1.9451    1.7995 C   0  0  0  0  0  0  0  0  0  0  0  0
   -5.9264   -1.3406    0.9514 C   0  0  0  0  0  0  0  0  0  0  0  0
   -5.0893   -2.2572    1.5879 C   0  0  0  0  0  0  0  0  0  0  0  0
    4.4399    3.6594    0.8624 C   0  0  0  0  0  0  0  0  0  0  0  0
    5.4520   -0.4017   -1.2523 C   0  0  0  0  0  0  0  0  0  0  0  0
    2.8247   -4.6507    1.3368 C   0  0  0  0  0  0  0  0  0  0  0  0
    1.3653    1.7811   -1.2084 H   0  0  0  0  0  0  0  0  0  0  0  0
   -1.5086    2.3159    1.6885 H   0  0  0  0  0  0  0  0  0  0  0  0
   -4.1181    1.9589   -0.5386 H   0  0  0  0  0  0  0  0  0  0  0  0
   -3.6601    2.2281    1.1134 H   0  0  0  0  0  0  0  0  0  0  0  0
    1.0036    0.1788   -3.2537 H   0  0  0  0  0  0  0  0  0  0  0  0
   -3.7993    0.6187   -2.1244 H   0  0  0  0  0  0  0  0  0  0  0  0
    3.2860    0.5672   -1.1314 H   0  0  0  0  0  0  0  0  0  0  0  0
   -0.2345   -1.1824    0.5558 H   0  0  0  0  0  0  0  0  0  0  0  0
   -0.7338   -0.4076   -4.8957 H   0  0  0  0  0  0  0  0  0  0  0  0
   -3.1277   -0.1867   -4.3022 H   0  0  0  0  0  0  0  0  0  0  0  0
    0.9566   -3.1650    1.1474 H   0  0  0  0  0  0  0  0  0  0  0  0
   -2.2004   -0.5065    1.5926 H   0  0  0  0  0  0  0  0  0  0  0  0
   -6.0825    0.5940    0.0323 H   0  0  0  0  0  0  0  0  0  0  0  0
    2.8514    4.1703    2.2154 H   0  0  0  0  0  0  0  0  0  0  0  0
    3.5655    2.5524    2.4819 H   0  0  0  0  0  0  0  0  0  0  0  0
   -3.0967   -2.6559    2.3019 H   0  0  0  0  0  0  0  0  0  0  0  0
   -6.9722   -1.5834    0.7872 H   0  0  0  0  0  0  0  0  0  0  0  0
   -5.4837   -3.2129    1.9203 H   0  0  0  0  0  0  0  0  0  0  0  0
    5.2332    4.1087    1.4663 H   0  0  0  0  0  0  0  0  0  0  0  0
    4.1398    4.3710    0.0861 H   0  0  0  0  0  0  0  0  0  0  0  0
    4.8414    2.7802    0.3486 H   0  0  0  0  0  0  0  0  0  0  0  0
    6.5070   -0.6440   -1.4173 H   0  0  0  0  0  0  0  0  0  0  0  0
    5.4275    0.4936   -0.6224 H   0  0  0  0  0  0  0  0  0  0  0  0
    5.0080   -0.2316   -2.2392 H   0  0  0  0  0  0  0  0  0  0  0  0
    3.5200   -5.4745    1.5290 H   0  0  0  0  0  0  0  0  0  0  0  0
    2.0312   -5.0479    0.6946 H   0  0  0  0  0  0  0  0  0  0  0  0
    2.4470   -4.3200    2.3103 H   0  0  0  0  0  0  0  0  0  0  0  0
  1 17  1  0  0  0  0
  1 26  1  0  0  0  0
  2 21  1  0  0  0  0
  2 31  1  0  0  0  0
  3 17  2  0  0  0  0
  4 23  1  0  0  0  0
  4 32  1  0  0  0  0
  5  8  1  0  0  0  0
  5 11  1  0  0  0  0
  5 12  1  0  0  0  0
  6  7  1  0  0  0  0
  6  9  1  0  0  0  0
  6 10  1  0  0  0  0
  6 33  1  0  0  0  0
  7  8  1  0  0  0  0
  7 13  2  0  0  0  0
  8 14  2  0  0  0  0
  9 11  2  0  0  0  0
  9 17  1  0  0  0  0
 10 15  2  0  0  0  0
 10 16  1  0  0  0  0
 11 34  1  0  0  0  0
 12 19  1  0  0  0  0
 12 35  1  0  0  0  0
 12 36  1  0  0  0  0
 13 18  1  0  0  0  0
 13 37  1  0  0  0  0
 14 20  1  0  0  0  0
 14 38  1  0  0  0  0
 15 21  1  0  0  0  0
 15 39  1  0  0  0  0
 16 22  2  0  0  0  0
 16 40  1  0  0  0  0
 18 20  2  0  0  0  0
 18 41  1  0  0  0  0
 19 24  2  0  0  0  0
 19 25  1  0  0  0  0
 20 42  1  0  0  0  0
 21 23  2  0  0  0  0
 22 23  1  0  0  0  0
 22 43  1  0  0  0  0
 24 27  1  0  0  0  0
 24 44  1  0  0  0  0
 25 28  2  0  0  0  0
 25 45  1  0  0  0  0
 26 30  1  0  0  0  0
 26 46  1  0  0  0  0
 26 47  1  0  0  0  0
 27 29  2  0  0  0  0
 27 48  1  0  0  0  0
 28 29  1  0  0  0  0
 28 49  1  0  0  0  0
 29 50  1  0  0  0  0
 30 51  1  0  0  0  0
 30 52  1  0  0  0  0
 30 53  1  0  0  0  0
 31 54  1  0  0  0  0
 31 55  1  0  0  0  0
 31 56  1  0  0  0  0
 32 57  1  0  0  0  0
 32 58  1  0  0  0  0
 32 59  1  0  0  0  0
M  END
> <PUBCHEM_COMPOUND_CID>
122181886

> <PUBCHEM_CONFORMER_RMSD>
1

> <PUBCHEM_CONFORMER_DIVERSEORDER>
2
62
68
55
6
48
63
9
50
25
67
28
61
20
52
51
13
54
39
64
43
27
1
60
44
65
59
33
21
26
69
40
8
41
23
57
46
42
24
35
53
22
36
3
38
34
32
29
12
30
56
66
19
49
7
4
15
45
37
18
14
17
58
16
31
11
10
47
5

> <PUBCHEM_MMFF94_PARTIAL_CHARGES>
44
1 -0.43
10 -0.14
11 -0.05
12 0.51
13 -0.15
14 -0.15
15 -0.15
16 -0.15
17 0.71
18 -0.15
19 -0.14
2 -0.36
20 -0.15
21 0.08
22 -0.15
23 0.08
24 -0.15
25 -0.15
26 0.28
27 -0.15
28 -0.15
29 -0.15
3 -0.57
31 0.28
32 0.28
34 0.15
37 0.15
38 0.15
39 0.15
4 -0.36
40 0.15
41 0.15
42 0.15
43 0.15
44 0.15
45 0.15
48 0.15
49 0.15
5 -0.57
50 0.15
6 0.43
7 -0.14
8 0.1
9 -0.12

> <PUBCHEM_EFFECTIVE_ROTOR_COUNT>
8.4

> <PUBCHEM_PHARMACOPHORE_FEATURES>
8
1 2 acceptor
1 3 acceptor
1 4 acceptor
1 5 cation
6 10 15 16 21 22 23 rings
6 19 24 25 27 28 29 rings
6 5 6 7 8 9 11 rings
6 7 8 13 14 18 20 rings

> <PUBCHEM_HEAVY_ATOM_COUNT>
32

> <PUBCHEM_ATOM_DEF_STEREO_COUNT>
0

> <PUBCHEM_ATOM_UDEF_STEREO_COUNT>
1

> <PUBCHEM_BOND_DEF_STEREO_COUNT>
0

> <PUBCHEM_BOND_UDEF_STEREO_COUNT>
0

> <PUBCHEM_ISOTOPIC_ATOM_COUNT>
0

> <PUBCHEM_COMPONENT_COUNT>
1

> <PUBCHEM_CACTVS_TAUTO_COUNT>
5

> <PUBCHEM_CONFORMER_ID>
074858FE00000002

> <PUBCHEM_MMFF94_ENERGY>
113.0423

> <PUBCHEM_FEATURE_SELFOVERLAP>
40.624

> <PUBCHEM_SHAPE_FINGERPRINT>
10074138 170 17263275129954712608
10369192 42 17973721669276925556
10906281 52 17342107996421882753
11477941 20 15433449299077063486
11578080 2 18114170917955009653
12128747 34 18337674105863503913
12156800 1 17254582889193741732
12160290 23 16980111312274172888
12422481 6 17678731469471411696
12553582 1 17844513432126545054
12633046 712 18191017898537870901
12633257 1 17775018903189181803
12969540 37 18333735727594271507
133893 2 17911759653502252000
13583140 156 18340765944918399525
14863182 85 17827940721089490867
14910302 57 17749100059488883623
14955137 171 17703240528869084308
15219462 58 18408599236841553829
15475509 35 18409456903451076443
19319366 153 17986110931669552072
20775530 9 17968665921633543171
23419403 2 18261377940995715719
23559900 14 18260833713422312433
23598288 3 17767401275782699116
244849 19 18262497240028889869
2818148 4 17273966007601979676
4280585 95 16588313838144710591
437795 51 18270975660411685324
46194498 28 16082509954333315815
469060 322 17689969642908188181
484985 159 17179683658677883867
513202 73 17199968652025618422
9896288 288 17413040781737450274

> <PUBCHEM_SHAPE_MULTIPOLES>
630.09
10.4
4.24
3.05
4.86
2.66
-3.33
4.33
3.65
-6.22
3.48
1.61
-1.25
2.65

> <PUBCHEM_SHAPE_SELFOVERLAP>
1370.081

> <PUBCHEM_SHAPE_VOLUME>
342.6

> <PUBCHEM_COORDINATE_TYPE>
2
5
10

$$$$