98608
  -OEChem-03242010103D

 38 40  0     0  0  0  0  0  0999 V2000
    0.4822   -2.9457   -0.2643 O   0  0  0  0  0  0  0  0  0  0  0  0
   -1.4333   -0.7798   -0.6316 O   0  0  0  0  0  0  0  0  0  0  0  0
   -0.4755    1.7961   -0.3384 O   0  0  0  0  0  0  0  0  0  0  0  0
    3.9498    0.0500    0.6063 O   0  0  0  0  0  0  0  0  0  0  0  0
   -0.8259    4.0595   -0.3521 O   0  0  0  0  0  0  0  0  0  0  0  0
    2.1263   -1.4524    0.1506 C   0  0  0  0  0  0  0  0  0  0  0  0
    0.7794   -1.6198   -0.1581 C   0  0  0  0  0  0  0  0  0  0  0  0
    1.7544    0.9401    0.1384 C   0  0  0  0  0  0  0  0  0  0  0  0
   -0.1215   -0.5719   -0.3299 C   0  0  0  0  0  0  0  0  0  0  0  0
    0.4139    0.7093   -0.1708 C   0  0  0  0  0  0  0  0  0  0  0  0
    2.6293   -0.1452    0.3030 C   0  0  0  0  0  0  0  0  0  0  0  0
    2.6683   -2.7623    0.2341 C   0  0  0  0  0  0  0  0  0  0  0  0
    2.2126    2.3129    0.2839 C   0  0  0  0  0  0  0  0  0  0  0  0
    1.6318   -3.6288   -0.0252 C   0  0  0  0  0  0  0  0  0  0  0  0
   -2.3369   -0.9157    0.4636 C   0  0  0  0  0  0  0  0  0  0  0  0
    1.3633    3.3303    0.1231 C   0  0  0  0  0  0  0  0  0  0  0  0
   -0.0574    3.1156   -0.2046 C   0  0  0  0  0  0  0  0  0  0  0  0
   -3.7177   -1.1648   -0.0571 C   0  0  0  0  0  0  0  0  0  0  0  0
   -4.8330   -0.4438    0.1650 C   0  0  0  0  0  0  0  0  0  0  0  0
    4.8477    0.1785   -0.4905 C   0  0  0  0  0  0  0  0  0  0  0  0
   -6.1431   -0.8622   -0.4490 C   0  0  0  0  0  0  0  0  0  0  0  0
   -4.9148    0.8001    1.0037 C   0  0  0  0  0  0  0  0  0  0  0  0
    3.6888   -3.0406    0.4561 H   0  0  0  0  0  0  0  0  0  0  0  0
    3.2488    2.5126    0.5315 H   0  0  0  0  0  0  0  0  0  0  0  0
    1.5536   -4.7049   -0.0746 H   0  0  0  0  0  0  0  0  0  0  0  0
   -2.0375   -1.7786    1.0713 H   0  0  0  0  0  0  0  0  0  0  0  0
   -2.2732   -0.0266    1.0954 H   0  0  0  0  0  0  0  0  0  0  0  0
    1.7008    4.3552    0.2334 H   0  0  0  0  0  0  0  0  0  0  0  0
   -3.8008   -2.0513   -0.6851 H   0  0  0  0  0  0  0  0  0  0  0  0
    5.8422    0.4025   -0.0947 H   0  0  0  0  0  0  0  0  0  0  0  0
    4.5460    0.9940   -1.1551 H   0  0  0  0  0  0  0  0  0  0  0  0
    4.9002   -0.7592   -1.0526 H   0  0  0  0  0  0  0  0  0  0  0  0
   -6.8829   -1.0585    0.3341 H   0  0  0  0  0  0  0  0  0  0  0  0
   -6.5270   -0.0694   -1.0994 H   0  0  0  0  0  0  0  0  0  0  0  0
   -6.0508   -1.7710   -1.0531 H   0  0  0  0  0  0  0  0  0  0  0  0
   -5.6143    0.6476    1.8326 H   0  0  0  0  0  0  0  0  0  0  0  0
   -3.9608    1.1060    1.4361 H   0  0  0  0  0  0  0  0  0  0  0  0
   -5.2785    1.6368    0.3977 H   0  0  0  0  0  0  0  0  0  0  0  0
  1  7  1  0  0  0  0
  1 14  1  0  0  0  0
  2  9  1  0  0  0  0
  2 15  1  0  0  0  0
  3 10  1  0  0  0  0
  3 17  1  0  0  0  0
  4 11  1  0  0  0  0
  4 20  1  0  0  0  0
  5 17  2  0  0  0  0
  6  7  1  0  0  0  0
  6 11  2  0  0  0  0
  6 12  1  0  0  0  0
  7  9  2  0  0  0  0
  8 10  2  0  0  0  0
  8 11  1  0  0  0  0
  8 13  1  0  0  0  0
  9 10  1  0  0  0  0
 12 14  2  0  0  0  0
 12 23  1  0  0  0  0
 13 16  2  0  0  0  0
 13 24  1  0  0  0  0
 14 25  1  0  0  0  0
 15 18  1  0  0  0  0
 15 26  1  0  0  0  0
 15 27  1  0  0  0  0
 16 17  1  0  0  0  0
 16 28  1  0  0  0  0
 18 19  2  0  0  0  0
 18 29  1  0  0  0  0
 19 21  1  0  0  0  0
 19 22  1  0  0  0  0
 20 30  1  0  0  0  0
 20 31  1  0  0  0  0
 20 32  1  0  0  0  0
 21 33  1  0  0  0  0
 21 34  1  0  0  0  0
 21 35  1  0  0  0  0
 22 36  1  0  0  0  0
 22 37  1  0  0  0  0
 22 38  1  0  0  0  0
M  END
> <PUBCHEM_COMPOUND_CID>
98608

> <PUBCHEM_CONFORMER_RMSD>
0.6

> <PUBCHEM_CONFORMER_DIVERSEORDER>
1
33
3
8
12
31
18
36
21
45
13
24
22
26
37
7
20
27
16
34
14
42
2
46
25
17
9
19
10
39
5
23
32
4
40
43
15
29
11
35
6
44
41
38
30
47
28

> <PUBCHEM_MMFF94_PARTIAL_CHARGES>
26
1 -0.28
10 0.08
11 0.08
12 -0.15
13 -0.18
14 -0.01
15 0.42
16 -0.14
17 0.71
18 -0.29
19 -0.28
2 -0.36
20 0.28
21 0.14
22 0.14
23 0.15
24 0.15
25 0.15
28 0.15
29 0.15
3 -0.23
4 -0.36
5 -0.57
7 0.14
8 0.03
9 0.08

> <PUBCHEM_EFFECTIVE_ROTOR_COUNT>
4

> <PUBCHEM_PHARMACOPHORE_FEATURES>
8
1 1 acceptor
1 2 acceptor
1 4 acceptor
1 5 acceptor
3 19 21 22 hydrophobe
5 1 6 7 12 14 rings
6 3 8 10 13 16 17 rings
6 6 7 8 9 10 11 rings

> <PUBCHEM_HEAVY_ATOM_COUNT>
22

> <PUBCHEM_ATOM_DEF_STEREO_COUNT>
0

> <PUBCHEM_ATOM_UDEF_STEREO_COUNT>
0

> <PUBCHEM_BOND_DEF_STEREO_COUNT>
0

> <PUBCHEM_BOND_UDEF_STEREO_COUNT>
0

> <PUBCHEM_ISOTOPIC_ATOM_COUNT>
0

> <PUBCHEM_COMPONENT_COUNT>
1

> <PUBCHEM_CACTVS_TAUTO_COUNT>
1

> <PUBCHEM_CONFORMER_ID>
0001813000000001

> <PUBCHEM_MMFF94_ENERGY>
68.2522

> <PUBCHEM_FEATURE_SELFOVERLAP>
40.73

> <PUBCHEM_SHAPE_FINGERPRINT>
10411042 1 18194962946301386246
10688039 33 18040714727909517709
10693767 8 18130791144305378878
10906281 52 18189354453467288824
10967382 1 18410570712766394110
1100329 8 18267019651591566786
116883 192 18122345675153529767
12011746 2 18409172125322748414
12107183 9 17838905828789495651
12236239 1 17703790344965612015
12293681 4 18114471110409154937
12553582 1 18339066142812103966
12633257 1 18041546044530825875
12788726 201 17901394398057115587
13140716 1 18193265528418476482
13583140 156 18334860567425160271
138480 1 18410575072142459729
14178342 30 17259608774161812240
14790565 3 18337962310706249644
15042514 8 17472980597237032987
15081414 286 18339652156861042067
15475509 8 17986137200005655972
15664445 248 18270137767868192332
15927050 60 17763466514688319372
1601671 61 18411140238066624402
16945 1 18339062883438276374
19591789 44 18337955713604165412
20028762 73 18129939121498848775
20157964 124 18339073896182822999
20739085 24 18262520406571028180
21041028 32 18265606581233472750
21197605 99 17976828915249793811
21421861 104 18043530503910025330
21641784 216 17969238771201433956
22289505 5 18334566924393929253
2334 1 17761484099608044550
23558518 356 17900546670560116696
23559900 14 18338512054051460643
23598291 2 17915448600891369911
2748010 2 18196639702018320374
3060560 45 18342460382578445302
3091708 16 9214597380267569347
3178227 256 18264220255894758946
335352 9 18339360872622158862
352729 6 16680333327677488732
474 4 18339922748612281331
54173680 148 17617939132322046574
59554788 170 18270403776552041062
6443956 14 18408604751463023245
8272917 22 18412830196308467367
84936 182 17986109836700480441
9999458 23 18337672035098242126

> <PUBCHEM_SHAPE_MULTIPOLES>
423.4
9.02
4.38
0.74
14.19
1.92
-0.04
-2.25
-0.45
-2.73
0.23
0.21
0.03
-0.25

> <PUBCHEM_SHAPE_SELFOVERLAP>
918.891

> <PUBCHEM_SHAPE_VOLUME>
234

> <PUBCHEM_COORDINATE_TYPE>
2
5
10

$$$$