118708521
  -OEChem-03242010103D

 47 49  0     0  0  0  0  0  0999 V2000
    1.3902    2.2997    0.8656 F   0  0  0  0  0  0  0  0  0  0  0  0
   -5.6920   -2.1567    0.3741 O   0  0  0  0  0  0  0  0  0  0  0  0
   -4.6081    2.4653   -0.2597 O   0  0  0  0  0  0  0  0  0  0  0  0
   -6.4950    0.4879    0.1876 O   0  0  0  0  0  0  0  0  0  0  0  0
   -0.7721   -1.9931   -0.7325 O   0  0  0  0  0  0  0  0  0  0  0  0
   -0.1392    0.1423    0.0216 N   0  0  0  0  0  0  0  0  0  0  0  0
    8.2801   -0.2148   -0.0055 N   0  0  0  0  0  0  0  0  0  0  0  0
   -2.4816   -0.5072   -0.2026 C   0  0  0  0  0  0  0  0  0  0  0  0
    1.2548    0.0846    0.0181 C   0  0  0  0  0  0  0  0  0  0  0  0
    4.0420   -0.0350    0.0095 C   0  0  0  0  0  0  0  0  0  0  0  0
   -2.8822    0.8257   -0.2971 C   0  0  0  0  0  0  0  0  0  0  0  0
   -3.4289   -1.5059    0.0229 C   0  0  0  0  0  0  0  0  0  0  0  0
   -4.7769   -1.1717    0.1537 C   0  0  0  0  0  0  0  0  0  0  0  0
   -4.2302    1.1597   -0.1663 C   0  0  0  0  0  0  0  0  0  0  0  0
   -5.1774    0.1610    0.0590 C   0  0  0  0  0  0  0  0  0  0  0  0
   -1.0451   -0.8634   -0.3409 C   0  0  0  0  0  0  0  0  0  0  0  0
    2.0013    1.1822    0.4467 C   0  0  0  0  0  0  0  0  0  0  0  0
    1.9019   -1.0728   -0.4148 C   0  0  0  0  0  0  0  0  0  0  0  0
    3.3949    1.1222    0.4426 C   0  0  0  0  0  0  0  0  0  0  0  0
    3.2955   -1.1326   -0.4192 C   0  0  0  0  0  0  0  0  0  0  0  0
    5.4873   -0.0968    0.0040 C   0  0  0  0  0  0  0  0  0  0  0  0
    6.2199    0.6312    0.9351 C   0  0  0  0  0  0  0  0  0  0  0  0
    6.1494   -0.8837   -0.9318 C   0  0  0  0  0  0  0  0  0  0  0  0
    7.6016    0.5389    0.8885 C   0  0  0  0  0  0  0  0  0  0  0  0
    7.5343   -0.9082   -0.8948 C   0  0  0  0  0  0  0  0  0  0  0  0
   -7.2758    0.5070   -1.0052 C   0  0  0  0  0  0  0  0  0  0  0  0
   -5.9715   -2.4892    1.7327 C   0  0  0  0  0  0  0  0  0  0  0  0
   -3.5771    3.4232   -0.4910 C   0  0  0  0  0  0  0  0  0  0  0  0
   -2.1345    1.5742   -0.5245 H   0  0  0  0  0  0  0  0  0  0  0  0
   -3.1301   -2.5483    0.1035 H   0  0  0  0  0  0  0  0  0  0  0  0
   -0.5067    1.0145    0.3910 H   0  0  0  0  0  0  0  0  0  0  0  0
    1.3957   -1.9632   -0.7597 H   0  0  0  0  0  0  0  0  0  0  0  0
    3.9342    2.0108    0.7586 H   0  0  0  0  0  0  0  0  0  0  0  0
    3.7566   -2.0636   -0.7379 H   0  0  0  0  0  0  0  0  0  0  0  0
    5.7674    1.2412    1.7092 H   0  0  0  0  0  0  0  0  0  0  0  0
    5.6417   -1.4531   -1.7026 H   0  0  0  0  0  0  0  0  0  0  0  0
    8.2190    1.0813    1.5970 H   0  0  0  0  0  0  0  0  0  0  0  0
    8.0989   -1.5005   -1.6074 H   0  0  0  0  0  0  0  0  0  0  0  0
   -8.2994    0.7854   -0.7399 H   0  0  0  0  0  0  0  0  0  0  0  0
   -7.2925   -0.4835   -1.4707 H   0  0  0  0  0  0  0  0  0  0  0  0
   -6.8842    1.2467   -1.7106 H   0  0  0  0  0  0  0  0  0  0  0  0
   -5.0685   -2.8556    2.2312 H   0  0  0  0  0  0  0  0  0  0  0  0
   -6.3707   -1.6216    2.2676 H   0  0  0  0  0  0  0  0  0  0  0  0
   -6.7236   -3.2828    1.7433 H   0  0  0  0  0  0  0  0  0  0  0  0
   -2.8556    3.4504    0.3329 H   0  0  0  0  0  0  0  0  0  0  0  0
   -3.0981    3.2741   -1.4648 H   0  0  0  0  0  0  0  0  0  0  0  0
   -4.0557    4.4077   -0.5231 H   0  0  0  0  0  0  0  0  0  0  0  0
  1 17  1  0  0  0  0
  2 13  1  0  0  0  0
  2 27  1  0  0  0  0
  3 14  1  0  0  0  0
  3 28  1  0  0  0  0
  4 15  1  0  0  0  0
  4 26  1  0  0  0  0
  5 16  2  0  0  0  0
  6  9  1  0  0  0  0
  6 16  1  0  0  0  0
  6 31  1  0  0  0  0
  7 24  2  0  0  0  0
  7 25  1  0  0  0  0
  8 11  2  0  0  0  0
  8 12  1  0  0  0  0
  8 16  1  0  0  0  0
  9 17  2  0  0  0  0
  9 18  1  0  0  0  0
 10 19  2  0  0  0  0
 10 20  1  0  0  0  0
 10 21  1  0  0  0  0
 11 14  1  0  0  0  0
 11 29  1  0  0  0  0
 12 13  2  0  0  0  0
 12 30  1  0  0  0  0
 13 15  1  0  0  0  0
 14 15  2  0  0  0  0
 17 19  1  0  0  0  0
 18 20  2  0  0  0  0
 18 32  1  0  0  0  0
 19 33  1  0  0  0  0
 20 34  1  0  0  0  0
 21 22  2  0  0  0  0
 21 23  1  0  0  0  0
 22 24  1  0  0  0  0
 22 35  1  0  0  0  0
 23 25  2  0  0  0  0
 23 36  1  0  0  0  0
 24 37  1  0  0  0  0
 25 38  1  0  0  0  0
 26 39  1  0  0  0  0
 26 40  1  0  0  0  0
 26 41  1  0  0  0  0
 27 42  1  0  0  0  0
 27 43  1  0  0  0  0
 27 44  1  0  0  0  0
 28 45  1  0  0  0  0
 28 46  1  0  0  0  0
 28 47  1  0  0  0  0
M  END
> <PUBCHEM_COMPOUND_CID>
118708521

> <PUBCHEM_CONFORMER_RMSD>
0.8

> <PUBCHEM_CONFORMER_DIVERSEORDER>
1
5
7
8
9
3
12
13
11
4
6
10
2

> <PUBCHEM_MMFF94_PARTIAL_CHARGES>
36
1 -0.19
11 -0.15
12 -0.15
13 0.08
14 0.08
15 0.08
16 0.54
17 0.19
18 -0.15
19 -0.15
2 -0.36
20 -0.15
22 -0.15
23 -0.15
24 0.16
25 0.16
26 0.28
27 0.28
28 0.28
29 0.15
3 -0.36
30 0.15
31 0.37
32 0.15
33 0.15
34 0.15
35 0.15
36 0.15
37 0.15
38 0.15
4 -0.36
5 -0.57
6 -0.55
7 -0.62
8 0.09
9 0.12

> <PUBCHEM_EFFECTIVE_ROTOR_COUNT>
7

> <PUBCHEM_PHARMACOPHORE_FEATURES>
9
1 2 acceptor
1 3 acceptor
1 4 acceptor
1 5 acceptor
1 6 donor
1 7 acceptor
6 7 21 22 23 24 25 rings
6 8 11 12 13 14 15 rings
6 9 10 17 18 19 20 rings

> <PUBCHEM_HEAVY_ATOM_COUNT>
28

> <PUBCHEM_ATOM_DEF_STEREO_COUNT>
0

> <PUBCHEM_ATOM_UDEF_STEREO_COUNT>
0

> <PUBCHEM_BOND_DEF_STEREO_COUNT>
0

> <PUBCHEM_BOND_UDEF_STEREO_COUNT>
0

> <PUBCHEM_ISOTOPIC_ATOM_COUNT>
0

> <PUBCHEM_COMPONENT_COUNT>
1

> <PUBCHEM_CACTVS_TAUTO_COUNT>
6

> <PUBCHEM_CONFORMER_ID>
0713592900000001

> <PUBCHEM_MMFF94_ENERGY>
122.6837

> <PUBCHEM_FEATURE_SELFOVERLAP>
45.683

> <PUBCHEM_SHAPE_FINGERPRINT>
10 15 18340762737083672944
100830 39 18410011000917958452
10299344 5 17240482516056647762
10319926 262 18337942467587369515
10411042 1 18191871348339464755
11315181 36 17967535683740464285
11646440 116 17846504755169321770
11719270 70 18202281382301805518
12166972 35 18334299803151117876
12236239 1 17385725824057273478
12516196 113 18060700598444473016
13073987 5 18335137557838601730
13533116 47 14404915652847598038
13685833 64 18343305890251603922
13885169 127 18408886213913514958
14251764 18 18260825977605521922
14856354 85 17168151151976130090
14933364 13 18413389835121184540
15183329 4 18409166589157052002
15419008 47 18202558480037130432
15849732 13 18060136548741988964
15927050 60 18411978070555695710
17844677 252 18335990847343777692
18608769 82 18410857698186405531
18927931 339 18409730686394560903
19611394 137 18116162245651099147
20281389 69 18411416194506407248
21033648 29 17988346126933488280
21267235 1 18342183284442129018
21279426 13 18199470974587827534
21315759 40 16950280715603650474
21792961 116 18201721709223223214
23559900 14 18409724089213894385
23569943 247 16372109024797629418
3004659 81 18407760344356539848
335352 9 18272650164795993436
3383291 50 18262237840693996962
350125 39 18411701010566942525
3545911 37 18272087188555757781
4073 2 18188212104268602674
5104073 3 18338801108854281811
59755656 215 18412545383735888558
59755656 520 17458622345488819987
6441014 3 16521059057174646827

> <PUBCHEM_SHAPE_MULTIPOLES>
535.51
23.16
2.38
0.96
18.42
1.07
0.15
-2.4
0.65
-4.56
0.22
-0.01
-0.24
2.49

> <PUBCHEM_SHAPE_SELFOVERLAP>
1165.079

> <PUBCHEM_SHAPE_VOLUME>
294.2

> <PUBCHEM_COORDINATE_TYPE>
2
5
10

$$$$