5566
  -OEChem-03242010103D

 52 55  0     0  0  0  0  0  0999 V2000
   -0.9115   -2.6737   -1.4913 S   0  0  0  0  0  0  0  0  0  0  0  0
   -6.1881    1.2890   -0.2607 F   0  0  0  0  0  0  0  0  0  0  0  0
   -5.2253    1.4078    1.6792 F   0  0  0  0  0  0  0  0  0  0  0  0
   -4.5897    2.7257    0.0705 F   0  0  0  0  0  0  0  0  0  0  0  0
    2.5124    1.3371   -0.4724 N   0  0  0  0  0  0  0  0  0  0  0  0
    5.3697    1.7702   -0.3901 N   0  0  0  0  0  0  0  0  0  0  0  0
   -0.3672   -0.4324    0.5932 N   0  0  0  0  0  0  0  0  0  0  0  0
    3.0880    2.4955    0.2216 C   0  0  0  0  0  0  0  0  0  0  0  0
    3.3781    0.9237   -1.5837 C   0  0  0  0  0  0  0  0  0  0  0  0
    1.1631    1.6350   -0.9486 C   0  0  0  0  0  0  0  0  0  0  0  0
    4.5033    2.1841    0.7205 C   0  0  0  0  0  0  0  0  0  0  0  0
    4.7939    0.6130   -1.0859 C   0  0  0  0  0  0  0  0  0  0  0  0
    0.2018    1.9354    0.2055 C   0  0  0  0  0  0  0  0  0  0  0  0
    0.0732    0.8131    1.2348 C   0  0  0  0  0  0  0  0  0  0  0  0
    6.7182    1.4707    0.0874 C   0  0  0  0  0  0  0  0  0  0  0  0
   -1.6738   -0.4566    0.0430 C   0  0  0  0  0  0  0  0  0  0  0  0
    0.5223   -1.5359    0.6304 C   0  0  0  0  0  0  0  0  0  0  0  0
   -2.0489   -1.4391   -0.8944 C   0  0  0  0  0  0  0  0  0  0  0  0
    0.3647   -2.6255   -0.2489 C   0  0  0  0  0  0  0  0  0  0  0  0
   -2.6654    0.4714    0.4302 C   0  0  0  0  0  0  0  0  0  0  0  0
    1.5781   -1.6142    1.5648 C   0  0  0  0  0  0  0  0  0  0  0  0
   -3.9569    0.4403   -0.1030 C   0  0  0  0  0  0  0  0  0  0  0  0
   -3.3484   -1.4628   -1.4315 C   0  0  0  0  0  0  0  0  0  0  0  0
    1.2455   -3.7207   -0.2030 C   0  0  0  0  0  0  0  0  0  0  0  0
   -4.2978   -0.5259   -1.0373 C   0  0  0  0  0  0  0  0  0  0  0  0
    2.4477   -2.7074    1.6093 C   0  0  0  0  0  0  0  0  0  0  0  0
    2.2832   -3.7602    0.7223 C   0  0  0  0  0  0  0  0  0  0  0  0
   -4.9701    1.4426    0.3380 C   0  0  0  0  0  0  0  0  0  0  0  0
    2.5081    2.7622    1.1102 H   0  0  0  0  0  0  0  0  0  0  0  0
    3.1123    3.3762   -0.4343 H   0  0  0  0  0  0  0  0  0  0  0  0
    3.4209    1.7018   -2.3579 H   0  0  0  0  0  0  0  0  0  0  0  0
    2.9729    0.0183   -2.0520 H   0  0  0  0  0  0  0  0  0  0  0  0
    1.1723    2.4922   -1.6351 H   0  0  0  0  0  0  0  0  0  0  0  0
    0.7747    0.7862   -1.5244 H   0  0  0  0  0  0  0  0  0  0  0  0
    4.9106    3.0876    1.1903 H   0  0  0  0  0  0  0  0  0  0  0  0
    4.4589    1.4049    1.4938 H   0  0  0  0  0  0  0  0  0  0  0  0
    4.7680   -0.2666   -0.4280 H   0  0  0  0  0  0  0  0  0  0  0  0
    5.4149    0.3544   -1.9521 H   0  0  0  0  0  0  0  0  0  0  0  0
    0.4759    2.8635    0.7195 H   0  0  0  0  0  0  0  0  0  0  0  0
   -0.7705    2.1656   -0.2441 H   0  0  0  0  0  0  0  0  0  0  0  0
   -0.6080    1.0993    2.0450 H   0  0  0  0  0  0  0  0  0  0  0  0
    1.0416    0.7643    1.7317 H   0  0  0  0  0  0  0  0  0  0  0  0
    7.3726    1.2063   -0.7506 H   0  0  0  0  0  0  0  0  0  0  0  0
    6.7294    0.6447    0.8077 H   0  0  0  0  0  0  0  0  0  0  0  0
    7.1608    2.3514    0.5658 H   0  0  0  0  0  0  0  0  0  0  0  0
   -2.4661    1.2376    1.1743 H   0  0  0  0  0  0  0  0  0  0  0  0
    1.7421   -0.8699    2.3364 H   0  0  0  0  0  0  0  0  0  0  0  0
   -3.6351   -2.2144   -2.1644 H   0  0  0  0  0  0  0  0  0  0  0  0
    1.1313   -4.5574   -0.8894 H   0  0  0  0  0  0  0  0  0  0  0  0
   -5.2941   -0.5701   -1.4671 H   0  0  0  0  0  0  0  0  0  0  0  0
    3.2437   -2.7374    2.3477 H   0  0  0  0  0  0  0  0  0  0  0  0
    2.9554   -4.6121    0.7533 H   0  0  0  0  0  0  0  0  0  0  0  0
  1 18  1  0  0  0  0
  1 19  1  0  0  0  0
  2 28  1  0  0  0  0
  3 28  1  0  0  0  0
  4 28  1  0  0  0  0
  5  8  1  0  0  0  0
  5  9  1  0  0  0  0
  5 10  1  0  0  0  0
  6 11  1  0  0  0  0
  6 12  1  0  0  0  0
  6 15  1  0  0  0  0
  7 14  1  0  0  0  0
  7 16  1  0  0  0  0
  7 17  1  0  0  0  0
  8 11  1  0  0  0  0
  8 29  1  0  0  0  0
  8 30  1  0  0  0  0
  9 12  1  0  0  0  0
  9 31  1  0  0  0  0
  9 32  1  0  0  0  0
 10 13  1  0  0  0  0
 10 33  1  0  0  0  0
 10 34  1  0  0  0  0
 11 35  1  0  0  0  0
 11 36  1  0  0  0  0
 12 37  1  0  0  0  0
 12 38  1  0  0  0  0
 13 14  1  0  0  0  0
 13 39  1  0  0  0  0
 13 40  1  0  0  0  0
 14 41  1  0  0  0  0
 14 42  1  0  0  0  0
 15 43  1  0  0  0  0
 15 44  1  0  0  0  0
 15 45  1  0  0  0  0
 16 18  2  0  0  0  0
 16 20  1  0  0  0  0
 17 19  1  0  0  0  0
 17 21  2  0  0  0  0
 18 23  1  0  0  0  0
 19 24  2  0  0  0  0
 20 22  2  0  0  0  0
 20 46  1  0  0  0  0
 21 26  1  0  0  0  0
 21 47  1  0  0  0  0
 22 25  1  0  0  0  0
 22 28  1  0  0  0  0
 23 25  2  0  0  0  0
 23 48  1  0  0  0  0
 24 27  1  0  0  0  0
 24 49  1  0  0  0  0
 25 50  1  0  0  0  0
 26 27  2  0  0  0  0
 26 51  1  0  0  0  0
 27 52  1  0  0  0  0
M  END
> <PUBCHEM_COMPOUND_CID>
5566

> <PUBCHEM_CONFORMER_RMSD>
0.8

> <PUBCHEM_CONFORMER_DIVERSEORDER>
3
9
29
34
24
33
30
31
15
2
21
23
1
26
19
32
18
13
27
25
6
12
4
14
7
28
22
16
11
8
17
20
5
10

> <PUBCHEM_MMFF94_PARTIAL_CHARGES>
34
1 -0.2
10 0.27
11 0.27
12 0.27
14 0.37
15 0.27
16 0.1
17 0.1
18 0.1
19 0.1
2 -0.34
20 -0.15
21 -0.15
22 -0.14
23 -0.15
24 -0.15
25 -0.15
26 -0.15
27 -0.15
28 1.16
3 -0.34
4 -0.34
46 0.15
47 0.15
48 0.15
49 0.15
5 -0.81
50 0.15
51 0.15
52 0.15
6 -0.81
7 -0.57
8 0.27
9 0.27

> <PUBCHEM_EFFECTIVE_ROTOR_COUNT>
6.6

> <PUBCHEM_PHARMACOPHORE_FEATURES>
7
1 5 cation
1 6 cation
1 7 cation
6 1 7 16 17 18 19 rings
6 16 18 20 22 23 25 rings
6 17 19 21 24 26 27 rings
6 5 6 8 9 11 12 rings

> <PUBCHEM_HEAVY_ATOM_COUNT>
28

> <PUBCHEM_ATOM_DEF_STEREO_COUNT>
0

> <PUBCHEM_ATOM_UDEF_STEREO_COUNT>
0

> <PUBCHEM_BOND_DEF_STEREO_COUNT>
0

> <PUBCHEM_BOND_UDEF_STEREO_COUNT>
0

> <PUBCHEM_ISOTOPIC_ATOM_COUNT>
0

> <PUBCHEM_COMPONENT_COUNT>
1

> <PUBCHEM_CACTVS_TAUTO_COUNT>
1

> <PUBCHEM_CONFORMER_ID>
000015BE00000003

> <PUBCHEM_MMFF94_ENERGY>
78.7644

> <PUBCHEM_FEATURE_SELFOVERLAP>
35.556

> <PUBCHEM_SHAPE_FINGERPRINT>
10369192 42 17387156323097483460
11578080 2 16444450309445985095
12035759 4 18272377425281654578
12156800 1 16341981448118581934
12422481 6 17897137184024287472
12644460 14 18335991861367315115
12788726 201 17560526092521006097
14251751 93 18267304429092432967
144659 178 17048238125898634832
14713325 29 18043536225059703435
14790565 3 18412542115349866904
14840074 17 17967805072921868532
15664445 248 17983868778426461950
17913733 40 18337692874448263963
1813 80 17975410218225279955
20511986 3 18131340921662076828
21298829 104 18410569609598011768
22393880 68 18201713002886709973
23558518 356 17833269001413236716
25147074 1 18272358764498248607
3411729 13 18260833652749139617
38695281 34 18411702088566764990
404807 14 16336990528975848750
4098825 35 11455886941746046187
5265222 85 18191318263556833156
5283173 99 18057604459320874944
5385378 56 18337117773874339905
57091435 65 18337391526330832823
7226269 152 18130513023777039176
79837 15 18116998990362495747

> <PUBCHEM_SHAPE_MULTIPOLES>
543.31
11.74
4.19
1.43
0.27
3.37
-0.01
-11.31
0.79
1.94
-0.55
0.09
0.47
-2.01

> <PUBCHEM_SHAPE_SELFOVERLAP>
1151.608

> <PUBCHEM_SHAPE_VOLUME>
308.1

> <PUBCHEM_COORDINATE_TYPE>
2
5
10

$$$$