56945420
  -OEChem-03242010103D

 44 46  0     0  0  0  0  0  0999 V2000
    6.2768    1.8485    0.5029 O   0  0  0  0  0  0  0  0  0  0  0  0
    1.3518    2.0233   -0.5779 O   0  0  0  0  0  0  0  0  0  0  0  0
    4.9960   -2.6173   -0.6591 O   0  0  0  0  0  0  0  0  0  0  0  0
    6.9656   -0.7877    0.0034 O   0  0  0  0  0  0  0  0  0  0  0  0
   -0.8114   -3.2153   -0.3968 O   0  5  0  0  0  0  0  0  0  0  0  0
   -0.7445   -2.6812    1.7314 O   0  0  0  0  0  0  0  0  0  0  0  0
    0.6331   -0.1579   -0.0764 N   0  0  0  0  0  0  0  0  0  0  0  0
   -1.0154   -2.4072    0.5390 N   0  3  0  0  0  0  0  0  0  0  0  0
   -3.5349    0.2491   -0.0479 C   0  0  0  0  0  0  0  0  0  0  0  0
   -0.7604   -0.0412   -0.0629 C   0  0  0  0  0  0  0  0  0  0  0  0
   -1.5743   -1.1335    0.2369 C   0  0  0  0  0  0  0  0  0  0  0  0
   -2.9615   -0.9884    0.2444 C   0  0  0  0  0  0  0  0  0  0  0  0
   -4.9738    0.4003   -0.0414 C   0  0  0  0  0  0  0  0  0  0  0  0
   -2.7210    1.3416   -0.3476 C   0  0  0  0  0  0  0  0  0  0  0  0
   -1.3337    1.1965   -0.3551 C   0  0  0  0  0  0  0  0  0  0  0  0
    2.9974    0.4143   -0.2391 C   0  0  0  0  0  0  0  0  0  0  0  0
    1.5771    0.8448   -0.3242 C   0  0  0  0  0  0  0  0  0  0  0  0
    3.9871    1.3390    0.0946 C   0  0  0  0  0  0  0  0  0  0  0  0
    3.3408   -0.9138   -0.4916 C   0  0  0  0  0  0  0  0  0  0  0  0
   -5.6309    0.7674    1.1329 C   0  0  0  0  0  0  0  0  0  0  0  0
   -5.7038    0.1788   -1.2090 C   0  0  0  0  0  0  0  0  0  0  0  0
    5.3198    0.9355    0.1760 C   0  0  0  0  0  0  0  0  0  0  0  0
    4.6736   -1.3173   -0.4103 C   0  0  0  0  0  0  0  0  0  0  0  0
    5.6631   -0.3925   -0.0765 C   0  0  0  0  0  0  0  0  0  0  0  0
   -7.0182    0.9132    1.1395 C   0  0  0  0  0  0  0  0  0  0  0  0
   -7.0910    0.3246   -1.2025 C   0  0  0  0  0  0  0  0  0  0  0  0
   -7.7482    0.6917   -0.0282 C   0  0  0  0  0  0  0  0  0  0  0  0
    5.8411    3.1849    0.7454 C   0  0  0  0  0  0  0  0  0  0  0  0
   -3.5955   -1.8421    0.4785 H   0  0  0  0  0  0  0  0  0  0  0  0
   -3.1532    2.3125   -0.5791 H   0  0  0  0  0  0  0  0  0  0  0  0
   -0.7826    2.0911   -0.6039 H   0  0  0  0  0  0  0  0  0  0  0  0
    0.9792   -1.0766    0.1806 H   0  0  0  0  0  0  0  0  0  0  0  0
    3.6682    2.3572    0.2893 H   0  0  0  0  0  0  0  0  0  0  0  0
    2.6003   -1.6494   -0.7925 H   0  0  0  0  0  0  0  0  0  0  0  0
   -5.0771    0.9439    2.0520 H   0  0  0  0  0  0  0  0  0  0  0  0
   -5.2073   -0.1080   -2.1330 H   0  0  0  0  0  0  0  0  0  0  0  0
   -7.5301    1.1990    2.0538 H   0  0  0  0  0  0  0  0  0  0  0  0
   -7.6595    0.1522   -2.1117 H   0  0  0  0  0  0  0  0  0  0  0  0
   -8.8283    0.8051   -0.0232 H   0  0  0  0  0  0  0  0  0  0  0  0
    4.1859   -3.1122   -0.8703 H   0  0  0  0  0  0  0  0  0  0  0  0
    7.0116   -1.7375   -0.2028 H   0  0  0  0  0  0  0  0  0  0  0  0
    5.3996    3.6352   -0.1503 H   0  0  0  0  0  0  0  0  0  0  0  0
    5.1764    3.2419    1.6141 H   0  0  0  0  0  0  0  0  0  0  0  0
    6.7315    3.7738    0.9893 H   0  0  0  0  0  0  0  0  0  0  0  0
  1 22  1  0  0  0  0
  1 28  1  0  0  0  0
  2 17  2  0  0  0  0
  3 23  1  0  0  0  0
  3 40  1  0  0  0  0
  4 24  1  0  0  0  0
  4 41  1  0  0  0  0
  5  8  1  0  0  0  0
  6  8  2  0  0  0  0
  7 10  1  0  0  0  0
  7 17  1  0  0  0  0
  7 32  1  0  0  0  0
  8 11  1  0  0  0  0
  9 12  2  0  0  0  0
  9 13  1  0  0  0  0
  9 14  1  0  0  0  0
 10 11  2  0  0  0  0
 10 15  1  0  0  0  0
 11 12  1  0  0  0  0
 12 29  1  0  0  0  0
 13 20  2  0  0  0  0
 13 21  1  0  0  0  0
 14 15  2  0  0  0  0
 14 30  1  0  0  0  0
 15 31  1  0  0  0  0
 16 17  1  0  0  0  0
 16 18  1  0  0  0  0
 16 19  2  0  0  0  0
 18 22  2  0  0  0  0
 18 33  1  0  0  0  0
 19 23  1  0  0  0  0
 19 34  1  0  0  0  0
 20 25  1  0  0  0  0
 20 35  1  0  0  0  0
 21 26  2  0  0  0  0
 21 36  1  0  0  0  0
 22 24  1  0  0  0  0
 23 24  2  0  0  0  0
 25 27  2  0  0  0  0
 25 37  1  0  0  0  0
 26 27  1  0  0  0  0
 26 38  1  0  0  0  0
 27 39  1  0  0  0  0
 28 42  1  0  0  0  0
 28 43  1  0  0  0  0
 28 44  1  0  0  0  0
M  CHG  2   5  -1   8   1
M  END
> <PUBCHEM_COMPOUND_CID>
56945420

> <PUBCHEM_CONFORMER_RMSD>
0.8

> <PUBCHEM_CONFORMER_DIVERSEORDER>
2
20
11
16
9
6
12
21
5
18
10
15
19
7
17
14
4
1
13
8
3

> <PUBCHEM_MMFF94_PARTIAL_CHARGES>
39
1 -0.36
10 0.12
11 0.13
12 -0.15
14 -0.15
15 -0.15
16 0.09
17 0.54
18 -0.15
19 -0.15
2 -0.57
20 -0.15
21 -0.15
22 0.08
23 0.08
24 0.08
25 -0.15
26 -0.15
27 -0.15
28 0.28
29 0.15
3 -0.53
30 0.15
31 0.15
32 0.37
33 0.15
34 0.15
35 0.15
36 0.15
37 0.15
38 0.15
39 0.15
4 -0.53
40 0.45
41 0.45
5 -0.52
6 -0.52
7 -0.55
8 0.91

> <PUBCHEM_EFFECTIVE_ROTOR_COUNT>
6

> <PUBCHEM_PHARMACOPHORE_FEATURES>
11
1 1 acceptor
1 2 acceptor
1 3 donor
1 4 donor
1 5 acceptor
1 5 anion
1 6 acceptor
1 7 donor
6 13 20 21 25 26 27 rings
6 16 18 19 22 23 24 rings
6 9 10 11 12 14 15 rings

> <PUBCHEM_HEAVY_ATOM_COUNT>
28

> <PUBCHEM_ATOM_DEF_STEREO_COUNT>
0

> <PUBCHEM_ATOM_UDEF_STEREO_COUNT>
0

> <PUBCHEM_BOND_DEF_STEREO_COUNT>
0

> <PUBCHEM_BOND_UDEF_STEREO_COUNT>
0

> <PUBCHEM_ISOTOPIC_ATOM_COUNT>
0

> <PUBCHEM_COMPONENT_COUNT>
1

> <PUBCHEM_CACTVS_TAUTO_COUNT>
22

> <PUBCHEM_CONFORMER_ID>
0364EB0C00000002

> <PUBCHEM_MMFF94_ENERGY>
108.2893

> <PUBCHEM_FEATURE_SELFOVERLAP>
55.908

> <PUBCHEM_SHAPE_FINGERPRINT>
10 15 17822007648982748576
10299344 5 17775565334291973693
10835480 77 18341047536107042928
10906281 52 18271261502547261740
11315181 36 17918273174092953781
11524674 6 16153431662380199281
11578080 2 17344612962997544994
12107698 1 17132112433772766545
12236239 1 17988924453687356845
12838862 33 18261939804707416108
13533116 47 18202563947825039074
1361 2 18059014977725272966
14170010 4 18334858329108817908
14251764 18 18131350808286473269
14849402 71 18131354158984054745
14856354 85 14490481885419887361
15183329 4 18413388717812587099
15849732 13 17458065966887433471
16120349 18 18343297093499601400
19141452 34 18409450323118002142
19315958 150 18410295839465770668
20157964 124 18343864416240764052
21130935 74 18342741818979642811
21236236 1 18337673131069665947
21521721 280 18413110559009506731
21781051 124 17605301578086167251
21859007 373 17531790390520649301
22122407 14 17274270559759829896
22224240 67 18333452050058473419
23081809 10 17632576046212715493
23522609 53 17560540472361949337
23536379 177 17274823528504088237
23559900 14 18269548502196759704
23569917 315 18409174337764493751
23569943 247 18124318198988341283
249057 3 18334579058040641020
3004659 81 18333450928982396620
3178227 256 18188221948512817761
335352 9 18407762542709746470
340366 18 17603875545368269021
3633792 109 18411978036226696185
397830 11 17532385346828686281
4073 2 18336266855006507810
5104073 3 18335985367223789722
57527293 21 17677878219512361236
5758199 1 18412830183876953977
59755656 215 18041279864154188791
59755656 520 18411412930426351143
6138700 20 18334577897861589167
6669772 16 18409168771196656639

> <PUBCHEM_SHAPE_MULTIPOLES>
531.05
20.74
2.59
0.99
6.91
0.94
0.13
-7.37
0.2
-3.88
0.49
1.16
0.1
0.89

> <PUBCHEM_SHAPE_SELFOVERLAP>
1165.249

> <PUBCHEM_SHAPE_VOLUME>
286.2

> <PUBCHEM_COORDINATE_TYPE>
2
5
10

$$$$