11652152
  -OEChem-03242010103D

 39 40  0     0  0  0  0  0  0999 V2000
    4.6866    2.0839   -0.4946 O   0  0  0  0  0  0  0  0  0  0  0  0
    3.8899   -2.5583    0.2805 O   0  0  0  0  0  0  0  0  0  0  0  0
   -5.3161   -0.6825   -1.1209 O   0  0  0  0  0  0  0  0  0  0  0  0
   -2.6179   -1.2188   -1.3301 O   0  0  0  0  0  0  0  0  0  0  0  0
    1.5796    0.2466    0.0080 C   0  0  0  0  0  0  0  0  0  0  0  0
   -2.2128   -0.0465    0.7221 C   0  0  0  0  0  0  0  0  0  0  0  0
    0.1302    0.5056    0.0696 C   0  0  0  0  0  0  0  0  0  0  0  0
   -0.7823   -0.3112    0.6440 C   0  0  0  0  0  0  0  0  0  0  0  0
    2.0451   -1.0472    0.1759 C   0  0  0  0  0  0  0  0  0  0  0  0
    2.4482    1.3022   -0.2167 C   0  0  0  0  0  0  0  0  0  0  0  0
   -3.0859   -0.5066   -0.2638 C   0  0  0  0  0  0  0  0  0  0  0  0
    3.8203    1.0572   -0.2748 C   0  0  0  0  0  0  0  0  0  0  0  0
    3.4171   -1.2924    0.1176 C   0  0  0  0  0  0  0  0  0  0  0  0
    4.3048   -0.2402   -0.1078 C   0  0  0  0  0  0  0  0  0  0  0  0
   -2.7053    0.6801    1.8061 C   0  0  0  0  0  0  0  0  0  0  0  0
   -4.4516   -0.2398   -0.1656 C   0  0  0  0  0  0  0  0  0  0  0  0
   -4.0707    0.9469    1.9042 C   0  0  0  0  0  0  0  0  0  0  0  0
   -4.9439    0.4870    0.9184 C   0  0  0  0  0  0  0  0  0  0  0  0
    4.1238    3.3849   -0.6567 C   0  0  0  0  0  0  0  0  0  0  0  0
    5.3037   -2.7375    0.2091 C   0  0  0  0  0  0  0  0  0  0  0  0
   -5.5630    0.1866   -2.2244 C   0  0  0  0  0  0  0  0  0  0  0  0
   -0.2069    1.4386   -0.3780 H   0  0  0  0  0  0  0  0  0  0  0  0
    1.3850   -1.8951    0.3313 H   0  0  0  0  0  0  0  0  0  0  0  0
    2.0203    2.2917   -0.3381 H   0  0  0  0  0  0  0  0  0  0  0  0
   -0.4926   -1.2390    1.1288 H   0  0  0  0  0  0  0  0  0  0  0  0
    5.3810   -0.3663   -0.1637 H   0  0  0  0  0  0  0  0  0  0  0  0
   -2.0389    1.0455    2.5841 H   0  0  0  0  0  0  0  0  0  0  0  0
   -4.4544    1.5125    2.7483 H   0  0  0  0  0  0  0  0  0  0  0  0
   -6.0066    0.6981    1.0020 H   0  0  0  0  0  0  0  0  0  0  0  0
   -1.6605   -1.3606   -1.2616 H   0  0  0  0  0  0  0  0  0  0  0  0
    3.4822    3.4386   -1.5428 H   0  0  0  0  0  0  0  0  0  0  0  0
    4.9553    4.0778   -0.8227 H   0  0  0  0  0  0  0  0  0  0  0  0
    3.6086    3.7169    0.2511 H   0  0  0  0  0  0  0  0  0  0  0  0
    5.8187   -2.1997    1.0123 H   0  0  0  0  0  0  0  0  0  0  0  0
    5.6929   -2.4777   -0.7813 H   0  0  0  0  0  0  0  0  0  0  0  0
    5.5022   -3.8037    0.3603 H   0  0  0  0  0  0  0  0  0  0  0  0
   -4.6356    0.3940   -2.7676 H   0  0  0  0  0  0  0  0  0  0  0  0
   -6.0150    1.1226   -1.8812 H   0  0  0  0  0  0  0  0  0  0  0  0
   -6.2616   -0.3108   -2.9028 H   0  0  0  0  0  0  0  0  0  0  0  0
  1 12  1  0  0  0  0
  1 19  1  0  0  0  0
  2 13  1  0  0  0  0
  2 20  1  0  0  0  0
  3 16  1  0  0  0  0
  3 21  1  0  0  0  0
  4 11  1  0  0  0  0
  4 30  1  0  0  0  0
  5  7  1  0  0  0  0
  5  9  2  0  0  0  0
  5 10  1  0  0  0  0
  6  8  1  0  0  0  0
  6 11  2  0  0  0  0
  6 15  1  0  0  0  0
  7  8  2  0  0  0  0
  7 22  1  0  0  0  0
  8 25  1  0  0  0  0
  9 13  1  0  0  0  0
  9 23  1  0  0  0  0
 10 12  2  0  0  0  0
 10 24  1  0  0  0  0
 11 16  1  0  0  0  0
 12 14  1  0  0  0  0
 13 14  2  0  0  0  0
 14 26  1  0  0  0  0
 15 17  2  0  0  0  0
 15 27  1  0  0  0  0
 16 18  2  0  0  0  0
 17 18  1  0  0  0  0
 17 28  1  0  0  0  0
 18 29  1  0  0  0  0
 19 31  1  0  0  0  0
 19 32  1  0  0  0  0
 19 33  1  0  0  0  0
 20 34  1  0  0  0  0
 20 35  1  0  0  0  0
 20 36  1  0  0  0  0
 21 37  1  0  0  0  0
 21 38  1  0  0  0  0
 21 39  1  0  0  0  0
M  END
> <PUBCHEM_COMPOUND_CID>
11652152

> <PUBCHEM_CONFORMER_RMSD>
0.8

> <PUBCHEM_CONFORMER_DIVERSEORDER>
6
9
7
11
5
10
4
8
1
2
3

> <PUBCHEM_MMFF94_PARTIAL_CHARGES>
30
1 -0.36
10 -0.15
11 0.08
12 0.08
13 0.08
14 -0.15
15 -0.15
16 0.08
17 -0.15
18 -0.15
19 0.28
2 -0.36
20 0.28
21 0.28
22 0.15
23 0.15
24 0.15
25 0.15
26 0.15
27 0.15
28 0.15
29 0.15
3 -0.36
30 0.45
4 -0.53
5 0.03
6 0.03
7 -0.18
8 -0.18
9 -0.15

> <PUBCHEM_EFFECTIVE_ROTOR_COUNT>
5

> <PUBCHEM_PHARMACOPHORE_FEATURES>
6
1 1 acceptor
1 2 acceptor
1 3 acceptor
1 4 donor
6 5 9 10 12 13 14 rings
6 6 11 15 16 17 18 rings

> <PUBCHEM_HEAVY_ATOM_COUNT>
21

> <PUBCHEM_ATOM_DEF_STEREO_COUNT>
0

> <PUBCHEM_ATOM_UDEF_STEREO_COUNT>
0

> <PUBCHEM_BOND_DEF_STEREO_COUNT>
1

> <PUBCHEM_BOND_UDEF_STEREO_COUNT>
0

> <PUBCHEM_ISOTOPIC_ATOM_COUNT>
0

> <PUBCHEM_COMPONENT_COUNT>
1

> <PUBCHEM_CACTVS_TAUTO_COUNT>
3

> <PUBCHEM_CONFORMER_ID>
00B1CC3800000006

> <PUBCHEM_MMFF94_ENERGY>
93.4319

> <PUBCHEM_FEATURE_SELFOVERLAP>
30.446

> <PUBCHEM_SHAPE_FINGERPRINT>
10595046 47 18342178916233587721
10912923 1 18060425711414786177
12107183 9 17909843028298384824
12236239 1 18060702779929169610
12403259 415 17167868551791412339
12616971 3 18270971154510554347
13167823 11 18272937115360348387
13533116 47 18341613728401777867
13631057 29 17909269422689753207
13675066 3 17386013896267229009
13760787 5 18411422795496413107
13955234 65 18335706061743464632
14528608 73 18201726209922116724
14739800 52 17561073753102860992
15081414 286 17967823772719489052
15188451 53 17202748324678701943
15250474 111 18059850658196753655
17349148 13 17632295670620843695
17818456 19 17485943934049570504
17844677 252 18334300829410573941
17857418 61 18131345280695179379
1813 80 18196947565459019598
18222031 100 18339077065621092322
18335252 98 18189621721357218979
18681886 176 16845296081451390272
19489759 90 16558465297459619195
200 152 18273211989483709763
20511986 3 18130211710066196072
20612939 158 18408886235209074926
20645477 70 18260546710553575674
21033648 144 18334297607968544951
21033648 29 17095241432046896757
21065198 48 18273219689853734345
21065201 7 15554176882369637857
21709351 56 18339644408444569591
21728266 224 17203036397052090195
22646028 1 18131069316287980219
23081809 10 18060701693566070953
23175994 123 17458637704935064965
23402539 116 17417806219751131777
23557571 272 14836136419993593384
23559900 14 14924212764587394603
268830 7 18409455760625895817
29717793 49 18201719522393857887
3004659 81 17988649566831866694
34797466 226 15553891116874034344
4015057 19 18408606984830420793
474 4 18264495164320459552
5104073 3 18130794455598024339
5281201 14 18113337479540151628
573450 72 17632015256522264883
633830 44 18270136633733010043
67856867 119 18273492394955736656
90127 26 17748825194308832741
9841814 1 18040432154043308034
9971528 1 17967819348997677772
9981440 41 17550090911187674136

> <PUBCHEM_SHAPE_MULTIPOLES>
408.69
14.11
2.42
1.44
4.16
0.64
0.13
-0.81
2.88
-6.32
0.31
3.18
0.23
-1.78

> <PUBCHEM_SHAPE_SELFOVERLAP>
869.55

> <PUBCHEM_SHAPE_VOLUME>
229.1

> <PUBCHEM_COORDINATE_TYPE>
2
5
10

$$$$