56945197
  -OEChem-03242010093D

 62 64  0     0  0  0  0  0  0999 V2000
    6.6980   -2.0717   -1.4404 O   0  0  0  0  0  0  0  0  0  0  0  0
    6.7061    1.6530    1.5702 O   0  0  0  0  0  0  0  0  0  0  0  0
    8.0927   -0.2464    0.1073 O   0  0  0  0  0  0  0  0  0  0  0  0
   -6.1782    1.3973   -1.9966 O   0  0  0  0  0  0  0  0  0  0  0  0
   -7.2112   -1.6399    1.5596 O   0  0  0  0  0  0  0  0  0  0  0  0
   -8.0472    0.1763   -0.3567 O   0  0  0  0  0  0  0  0  0  0  0  0
   -2.2677   -2.1238    0.6711 O   0  0  0  0  0  0  0  0  0  0  0  0
   -0.4697    3.1009   -0.7744 O   0  5  0  0  0  0  0  0  0  0  0  0
   -0.5444    2.7610    1.3931 O   0  0  0  0  0  0  0  0  0  0  0  0
   -1.6880   -0.0162   -0.1936 N   0  0  0  0  0  0  0  0  0  0  0  0
   -0.2271    2.4004    0.2358 N   0  3  0  0  0  0  0  0  0  0  0  0
    2.4973   -0.0977   -0.0614 C   0  0  0  0  0  0  0  0  0  0  0  0
    3.9429   -0.1370   -0.0174 C   0  0  0  0  0  0  0  0  0  0  0  0
   -0.2903   -0.0238   -0.1466 C   0  0  0  0  0  0  0  0  0  0  0  0
    0.4325    1.1507    0.0625 C   0  0  0  0  0  0  0  0  0  0  0  0
    1.8262    1.1137    0.1052 C   0  0  0  0  0  0  0  0  0  0  0  0
    1.7746   -1.2722   -0.2707 C   0  0  0  0  0  0  0  0  0  0  0  0
    0.3808   -1.2353   -0.3131 C   0  0  0  0  0  0  0  0  0  0  0  0
    4.6416    0.7840    0.7631 C   0  0  0  0  0  0  0  0  0  0  0  0
    4.6378   -1.0946   -0.7560 C   0  0  0  0  0  0  0  0  0  0  0  0
    6.0316   -1.1313   -0.7142 C   0  0  0  0  0  0  0  0  0  0  0  0
    6.0353    0.7475    0.8049 C   0  0  0  0  0  0  0  0  0  0  0  0
    6.7303   -0.2101    0.0662 C   0  0  0  0  0  0  0  0  0  0  0  0
   -4.0112   -0.7116    0.0568 C   0  0  0  0  0  0  0  0  0  0  0  0
   -2.5666   -1.0301    0.2036 C   0  0  0  0  0  0  0  0  0  0  0  0
   -4.9494   -1.3284    0.8845 C   0  0  0  0  0  0  0  0  0  0  0  0
   -4.4284    0.2035   -0.9098 C   0  0  0  0  0  0  0  0  0  0  0  0
   -5.7839    0.5020   -1.0486 C   0  0  0  0  0  0  0  0  0  0  0  0
   -6.3048   -1.0299    0.7456 C   0  0  0  0  0  0  0  0  0  0  0  0
   -6.7221   -0.1147   -0.2208 C   0  0  0  0  0  0  0  0  0  0  0  0
    5.9078   -2.9751   -2.2111 C   0  0  0  0  0  0  0  0  0  0  0  0
    6.9756    1.2857    2.9219 C   0  0  0  0  0  0  0  0  0  0  0  0
    8.7899    0.5351   -0.8602 C   0  0  0  0  0  0  0  0  0  0  0  0
   -5.1554    1.9819   -2.8008 C   0  0  0  0  0  0  0  0  0  0  0  0
   -6.7011   -2.5622    2.5206 C   0  0  0  0  0  0  0  0  0  0  0  0
   -8.5544    1.2591    0.4200 C   0  0  0  0  0  0  0  0  0  0  0  0
    2.3618    2.0511    0.2382 H   0  0  0  0  0  0  0  0  0  0  0  0
    2.2495   -2.2437   -0.3769 H   0  0  0  0  0  0  0  0  0  0  0  0
   -0.1446   -2.1662   -0.5027 H   0  0  0  0  0  0  0  0  0  0  0  0
    4.1360    1.5259    1.3760 H   0  0  0  0  0  0  0  0  0  0  0  0
    4.0733   -1.7699   -1.3871 H   0  0  0  0  0  0  0  0  0  0  0  0
   -2.0960    0.9049   -0.3282 H   0  0  0  0  0  0  0  0  0  0  0  0
   -4.5738   -2.0263    1.6248 H   0  0  0  0  0  0  0  0  0  0  0  0
   -3.6809    0.6325   -1.5653 H   0  0  0  0  0  0  0  0  0  0  0  0
    6.6007   -3.6587   -2.7130 H   0  0  0  0  0  0  0  0  0  0  0  0
    5.3523   -2.4551   -2.9991 H   0  0  0  0  0  0  0  0  0  0  0  0
    5.2612   -3.5915   -1.5770 H   0  0  0  0  0  0  0  0  0  0  0  0
    7.5207    2.1055    3.3974 H   0  0  0  0  0  0  0  0  0  0  0  0
    7.5955    0.3844    2.9602 H   0  0  0  0  0  0  0  0  0  0  0  0
    6.0412    1.1229    3.4684 H   0  0  0  0  0  0  0  0  0  0  0  0
    9.8631    0.4010   -0.6996 H   0  0  0  0  0  0  0  0  0  0  0  0
    8.5492    1.5965   -0.7442 H   0  0  0  0  0  0  0  0  0  0  0  0
    8.5440    0.2030   -1.8738 H   0  0  0  0  0  0  0  0  0  0  0  0
   -4.4571    2.5755   -2.2008 H   0  0  0  0  0  0  0  0  0  0  0  0
   -4.6478    1.2320   -3.4171 H   0  0  0  0  0  0  0  0  0  0  0  0
   -5.6473    2.6760   -3.4904 H   0  0  0  0  0  0  0  0  0  0  0  0
   -6.2189   -3.4209    2.0410 H   0  0  0  0  0  0  0  0  0  0  0  0
   -6.0487   -2.0679    3.2486 H   0  0  0  0  0  0  0  0  0  0  0  0
   -7.5590   -2.9522    3.0785 H   0  0  0  0  0  0  0  0  0  0  0  0
   -9.6206    1.3665    0.2027 H   0  0  0  0  0  0  0  0  0  0  0  0
   -8.0482    2.1930    0.1562 H   0  0  0  0  0  0  0  0  0  0  0  0
   -8.4343    1.0562    1.4889 H   0  0  0  0  0  0  0  0  0  0  0  0
  1 21  1  0  0  0  0
  1 31  1  0  0  0  0
  2 22  1  0  0  0  0
  2 32  1  0  0  0  0
  3 23  1  0  0  0  0
  3 33  1  0  0  0  0
  4 28  1  0  0  0  0
  4 34  1  0  0  0  0
  5 29  1  0  0  0  0
  5 35  1  0  0  0  0
  6 30  1  0  0  0  0
  6 36  1  0  0  0  0
  7 25  2  0  0  0  0
  8 11  1  0  0  0  0
  9 11  2  0  0  0  0
 10 14  1  0  0  0  0
 10 25  1  0  0  0  0
 10 42  1  0  0  0  0
 11 15  1  0  0  0  0
 12 13  1  0  0  0  0
 12 16  2  0  0  0  0
 12 17  1  0  0  0  0
 13 19  2  0  0  0  0
 13 20  1  0  0  0  0
 14 15  2  0  0  0  0
 14 18  1  0  0  0  0
 15 16  1  0  0  0  0
 16 37  1  0  0  0  0
 17 18  2  0  0  0  0
 17 38  1  0  0  0  0
 18 39  1  0  0  0  0
 19 22  1  0  0  0  0
 19 40  1  0  0  0  0
 20 21  2  0  0  0  0
 20 41  1  0  0  0  0
 21 23  1  0  0  0  0
 22 23  2  0  0  0  0
 24 25  1  0  0  0  0
 24 26  2  0  0  0  0
 24 27  1  0  0  0  0
 26 29  1  0  0  0  0
 26 43  1  0  0  0  0
 27 28  2  0  0  0  0
 27 44  1  0  0  0  0
 28 30  1  0  0  0  0
 29 30  2  0  0  0  0
 31 45  1  0  0  0  0
 31 46  1  0  0  0  0
 31 47  1  0  0  0  0
 32 48  1  0  0  0  0
 32 49  1  0  0  0  0
 32 50  1  0  0  0  0
 33 51  1  0  0  0  0
 33 52  1  0  0  0  0
 33 53  1  0  0  0  0
 34 54  1  0  0  0  0
 34 55  1  0  0  0  0
 34 56  1  0  0  0  0
 35 57  1  0  0  0  0
 35 58  1  0  0  0  0
 35 59  1  0  0  0  0
 36 60  1  0  0  0  0
 36 61  1  0  0  0  0
 36 62  1  0  0  0  0
M  CHG  2   8  -1  11   1
M  END
> <PUBCHEM_COMPOUND_CID>
56945197

> <PUBCHEM_CONFORMER_RMSD>
1.2

> <PUBCHEM_CONFORMER_DIVERSEORDER>
10
5
14
12
15
9
2
11
8
7
3
6
13
4
1

> <PUBCHEM_MMFF94_PARTIAL_CHARGES>
42
1 -0.36
10 -0.55
11 0.91
14 0.12
15 0.13
16 -0.15
17 -0.15
18 -0.15
19 -0.15
2 -0.36
20 -0.15
21 0.08
22 0.08
23 0.08
24 0.09
25 0.54
26 -0.15
27 -0.15
28 0.08
29 0.08
3 -0.36
30 0.08
31 0.28
32 0.28
33 0.28
34 0.28
35 0.28
36 0.28
37 0.15
38 0.15
39 0.15
4 -0.36
40 0.15
41 0.15
42 0.37
43 0.15
44 0.15
5 -0.36
6 -0.36
7 -0.57
8 -0.52
9 -0.52

> <PUBCHEM_EFFECTIVE_ROTOR_COUNT>
11

> <PUBCHEM_PHARMACOPHORE_FEATURES>
14
1 1 acceptor
1 10 donor
1 2 acceptor
1 3 acceptor
1 4 acceptor
1 5 acceptor
1 6 acceptor
1 7 acceptor
1 8 acceptor
1 8 anion
1 9 acceptor
6 12 14 15 16 17 18 rings
6 13 19 20 21 22 23 rings
6 24 26 27 28 29 30 rings

> <PUBCHEM_HEAVY_ATOM_COUNT>
36

> <PUBCHEM_ATOM_DEF_STEREO_COUNT>
0

> <PUBCHEM_ATOM_UDEF_STEREO_COUNT>
0

> <PUBCHEM_BOND_DEF_STEREO_COUNT>
0

> <PUBCHEM_BOND_UDEF_STEREO_COUNT>
0

> <PUBCHEM_ISOTOPIC_ATOM_COUNT>
0

> <PUBCHEM_COMPONENT_COUNT>
1

> <PUBCHEM_CACTVS_TAUTO_COUNT>
2

> <PUBCHEM_CONFORMER_ID>
0364EA2D0000000A

> <PUBCHEM_MMFF94_ENERGY>
185.9407

> <PUBCHEM_FEATURE_SELFOVERLAP>
71.156

> <PUBCHEM_SHAPE_FINGERPRINT>
10299344 5 15719108067447994987
11181472 205 16343156735279029562
11646440 116 18342747342280731555
12082328 90 17703784822069900711
12120059 9 18336811057269874611
13383665 225 18338255795012868236
13782708 43 18058453110698987710
13811026 1 18412545413816262890
14118638 360 18059581240115693866
14294032 229 17097206130735892124
14856354 85 16370728145367201667
15064986 266 18270689653901599124
15131766 46 15336837656654570328
15183329 4 17313104137862930357
15276724 80 17703783696234957852
15301273 46 18341896289878522914
15328684 2 16154254036289577100
15419008 47 18408316683670257229
15419008 91 18261938726471035588
15461852 350 16200428088186745877
15510794 2 18409452487702839539
1577012 14 15646772275540986542
15849732 13 18202282519992865735
18608769 82 18040438824180558163
19315958 150 18059857307517556482
19841028 212 17385996210505093402
21130935 74 17917998299368595735
21792934 111 18272644632999558952
21792961 116 18334853879300678887
23522609 53 15502951705131464638
23569914 152 17047094638274061670
2747138 104 18411423920614606952
335352 9 18410009957783744127
3383291 50 18334299816099590339
4760202 170 17275091834864001553
58902169 19 15913321433623772608

> <PUBCHEM_SHAPE_MULTIPOLES>
678.08
28.16
2.57
1.94
0.93
0.12
0.21
-2.66
2.07
-0.5
-0.11
-0.09
0.07
6.47

> <PUBCHEM_SHAPE_SELFOVERLAP>
1460.438

> <PUBCHEM_SHAPE_VOLUME>
375.6

> <PUBCHEM_COORDINATE_TYPE>
2
5
10

$$$$