11536458
  -OEChem-03242010103D

 37 39  0     0  0  0  0  0  0999 V2000
   -4.2334    2.1529   -0.4442 O   0  0  0  0  0  0  0  0  0  0  0  0
   -3.6615   -2.5179    0.3564 O   0  0  0  0  0  0  0  0  0  0  0  0
    6.6130    0.0350   -0.0334 O   0  0  0  0  0  0  0  0  0  0  0  0
    0.2337    0.3603    0.1358 C   0  0  0  0  0  0  0  0  0  0  0  0
    2.4820   -0.5050   -0.2037 C   0  0  0  0  0  0  0  0  0  0  0  0
    3.0163    0.7237    0.2521 C   0  0  0  0  0  0  0  0  0  0  0  0
   -1.1998    0.1741    0.0742 C   0  0  0  0  0  0  0  0  0  0  0  0
    1.0883   -0.6706   -0.2560 C   0  0  0  0  0  0  0  0  0  0  0  0
    0.7592    1.5686    0.5839 C   0  0  0  0  0  0  0  0  0  0  0  0
    2.1412    1.7506    0.6421 C   0  0  0  0  0  0  0  0  0  0  0  0
   -1.7460   -1.0976    0.2472 C   0  0  0  0  0  0  0  0  0  0  0  0
   -2.0356    1.2664   -0.1581 C   0  0  0  0  0  0  0  0  0  0  0  0
    3.3569   -1.5318   -0.5941 C   0  0  0  0  0  0  0  0  0  0  0  0
    4.4100    0.8892    0.3042 C   0  0  0  0  0  0  0  0  0  0  0  0
   -3.4176    1.0871   -0.2176 C   0  0  0  0  0  0  0  0  0  0  0  0
   -3.1280   -1.2770    0.1878 C   0  0  0  0  0  0  0  0  0  0  0  0
    5.2645   -0.1419   -0.0872 C   0  0  0  0  0  0  0  0  0  0  0  0
    4.7390   -1.3500   -0.5357 C   0  0  0  0  0  0  0  0  0  0  0  0
   -3.9638   -0.1846   -0.0446 C   0  0  0  0  0  0  0  0  0  0  0  0
   -5.6363    1.8979   -0.4926 C   0  0  0  0  0  0  0  0  0  0  0  0
   -5.0820   -2.6294    0.2835 C   0  0  0  0  0  0  0  0  0  0  0  0
    0.7016   -1.6121   -0.6413 H   0  0  0  0  0  0  0  0  0  0  0  0
    0.1341    2.3878    0.9284 H   0  0  0  0  0  0  0  0  0  0  0  0
    2.5303    2.7009    1.0020 H   0  0  0  0  0  0  0  0  0  0  0  0
   -1.1327   -1.9690    0.4616 H   0  0  0  0  0  0  0  0  0  0  0  0
   -1.6483    2.2678   -0.3280 H   0  0  0  0  0  0  0  0  0  0  0  0
    2.9690   -2.4849   -0.9480 H   0  0  0  0  0  0  0  0  0  0  0  0
    4.8302    1.8311    0.6530 H   0  0  0  0  0  0  0  0  0  0  0  0
    5.3999   -2.1562   -0.8425 H   0  0  0  0  0  0  0  0  0  0  0  0
   -5.0335   -0.3235   -0.0906 H   0  0  0  0  0  0  0  0  0  0  0  0
    6.8014    0.9292    0.2996 H   0  0  0  0  0  0  0  0  0  0  0  0
   -5.8991    1.2382   -1.3267 H   0  0  0  0  0  0  0  0  0  0  0  0
   -6.1303    2.8569   -0.6812 H   0  0  0  0  0  0  0  0  0  0  0  0
   -6.0144    1.5317    0.4680 H   0  0  0  0  0  0  0  0  0  0  0  0
   -5.4583   -2.3612   -0.7096 H   0  0  0  0  0  0  0  0  0  0  0  0
   -5.5736   -2.0676    1.0852 H   0  0  0  0  0  0  0  0  0  0  0  0
   -5.3292   -3.6847    0.4403 H   0  0  0  0  0  0  0  0  0  0  0  0
  1 15  1  0  0  0  0
  1 20  1  0  0  0  0
  2 16  1  0  0  0  0
  2 21  1  0  0  0  0
  3 17  1  0  0  0  0
  3 31  1  0  0  0  0
  4  7  1  0  0  0  0
  4  8  2  0  0  0  0
  4  9  1  0  0  0  0
  5  6  2  0  0  0  0
  5  8  1  0  0  0  0
  5 13  1  0  0  0  0
  6 10  1  0  0  0  0
  6 14  1  0  0  0  0
  7 11  2  0  0  0  0
  7 12  1  0  0  0  0
  8 22  1  0  0  0  0
  9 10  2  0  0  0  0
  9 23  1  0  0  0  0
 10 24  1  0  0  0  0
 11 16  1  0  0  0  0
 11 25  1  0  0  0  0
 12 15  2  0  0  0  0
 12 26  1  0  0  0  0
 13 18  2  0  0  0  0
 13 27  1  0  0  0  0
 14 17  2  0  0  0  0
 14 28  1  0  0  0  0
 15 19  1  0  0  0  0
 16 19  2  0  0  0  0
 17 18  1  0  0  0  0
 18 29  1  0  0  0  0
 19 30  1  0  0  0  0
 20 32  1  0  0  0  0
 20 33  1  0  0  0  0
 20 34  1  0  0  0  0
 21 35  1  0  0  0  0
 21 36  1  0  0  0  0
 21 37  1  0  0  0  0
M  END
> <PUBCHEM_COMPOUND_CID>
11536458

> <PUBCHEM_CONFORMER_RMSD>
0.6

> <PUBCHEM_CONFORMER_DIVERSEORDER>
1
4
2
3

> <PUBCHEM_MMFF94_PARTIAL_CHARGES>
27
1 -0.36
10 -0.15
11 -0.15
12 -0.15
13 -0.15
14 -0.15
15 0.08
16 0.08
17 0.08
18 -0.15
19 -0.15
2 -0.36
20 0.28
21 0.28
22 0.15
23 0.15
24 0.15
25 0.15
26 0.15
27 0.15
28 0.15
29 0.15
3 -0.53
30 0.15
31 0.45
8 -0.15
9 -0.15

> <PUBCHEM_EFFECTIVE_ROTOR_COUNT>
3

> <PUBCHEM_PHARMACOPHORE_FEATURES>
6
1 1 acceptor
1 2 acceptor
1 3 donor
6 4 5 6 8 9 10 rings
6 5 6 13 14 17 18 rings
6 7 11 12 15 16 19 rings

> <PUBCHEM_HEAVY_ATOM_COUNT>
21

> <PUBCHEM_ATOM_DEF_STEREO_COUNT>
0

> <PUBCHEM_ATOM_UDEF_STEREO_COUNT>
0

> <PUBCHEM_BOND_DEF_STEREO_COUNT>
0

> <PUBCHEM_BOND_UDEF_STEREO_COUNT>
0

> <PUBCHEM_ISOTOPIC_ATOM_COUNT>
0

> <PUBCHEM_COMPONENT_COUNT>
1

> <PUBCHEM_CACTVS_TAUTO_COUNT>
3

> <PUBCHEM_CONFORMER_ID>
00B0084A00000001

> <PUBCHEM_MMFF94_ENERGY>
87.2108

> <PUBCHEM_FEATURE_SELFOVERLAP>
30.472

> <PUBCHEM_SHAPE_FINGERPRINT>
10366900 7 14764341631079032262
10411042 1 18119813771365504419
105312 117 17750784468664304549
10835480 77 18342450457088684072
10906281 52 17844824606723388577
11405975 8 18411699872342398705
11796584 16 18409729522073451098
12236239 1 16950283987941468364
12403259 226 18269551809680065793
12403259 415 18201153355758040168
12507560 40 18270677679057855081
12616971 3 16515694337751020566
12788726 201 17772747178637284257
13288520 33 18410857689617264459
13583140 156 18060132167543076309
13675066 3 18202277039546030392
13760787 19 18114177506144100058
14508225 48 18263070180592810469
15196674 1 18411701010350274818
15788980 27 18113903762324851736
17844677 252 18337398235154398368
19141452 34 18408042888336989301
200 152 17418369177809268909
20645477 56 18334293133277611373
20645477 70 17703226205047495142
20681677 155 18114181900196376209
21033648 29 17988910197936476024
21065198 57 18412261748501274121
21065201 7 18334005107905822065
21236236 1 18411981369532430263
21267235 1 18339368564201944275
21279426 13 18339082575478544726
21421861 104 17606108482076084450
21709351 56 18409162242560698820
221490 88 18340208599849339296
2215653 11 18201434735981680685
22393880 68 18408881828325001778
23402539 116 18114178636021244060
23557571 272 18411142463081223333
23559900 14 18341607114173448816
26918003 58 18272086076528551824
3004659 81 18189900825548866134
335352 9 18339642235222851077
34934 24 18338511945938695726
350125 39 18339930419370955473
3545911 37 18412262813732401721
4073 2 18260552242603289490
4214541 1 18410293614255778585
4921388 177 17023195954201499051
5104073 3 18342454850443829640
5283173 99 18337388240723497432
542803 24 16950568765958974452
559249 180 18335697221825498003
59755656 520 18261949653668936229
633830 44 17095249128591504136
77779 3 18410575102043499124
9709674 26 18264490757303952531
9995097 60 18343022194354528801

> <PUBCHEM_SHAPE_MULTIPOLES>
414.56
13.49
2.39
0.72
3.74
0.61
0
1.38
1.19
-3.43
-0.09
0.02
-0.03
1.47

> <PUBCHEM_SHAPE_SELFOVERLAP>
916.892

> <PUBCHEM_SHAPE_VOLUME>
224.6

> <PUBCHEM_COORDINATE_TYPE>
2
5
10

$$$$