134131336
  -OEChem-03242010103D

 52 55  0     0  0  0  0  0  0999 V2000
    4.4183    2.5626   -0.0034 F   0  0  0  0  0  0  0  0  0  0  0  0
    4.0111    3.7624   -1.7636 F   0  0  0  0  0  0  0  0  0  0  0  0
    4.0117    4.6885    0.2037 F   0  0  0  0  0  0  0  0  0  0  0  0
    3.3216   -1.2762    1.4283 O   0  0  0  0  0  0  0  0  0  0  0  0
    4.4490   -3.6010    0.4040 O   0  0  0  0  0  0  0  0  0  0  0  0
   -2.7593    3.4426    0.3355 O   0  0  0  0  0  0  0  0  0  0  0  0
   -2.3859    1.1498   -0.0232 N   0  0  0  0  0  0  0  0  0  0  0  0
   -0.9470   -2.5722   -0.3254 N   0  0  0  0  0  0  0  0  0  0  0  0
   -1.5339   -1.4648    0.1504 N   0  0  0  0  0  0  0  0  0  0  0  0
   -2.9401   -2.8506   -0.9585 N   0  0  0  0  0  0  0  0  0  0  0  0
   -1.7425   -3.4223   -0.9892 N   0  0  0  0  0  0  0  0  0  0  0  0
   -3.8742   -0.7788   -0.0276 C   0  0  0  0  0  0  0  0  0  0  0  0
   -3.6649    0.5952    0.0908 C   0  0  0  0  0  0  0  0  0  0  0  0
   -2.7818   -1.6841   -0.2712 C   0  0  0  0  0  0  0  0  0  0  0  0
    0.4067   -2.8259   -0.1411 C   0  0  0  0  0  0  0  0  0  0  0  0
   -0.5650    2.7705   -0.0454 C   0  0  0  0  0  0  0  0  0  0  0  0
   -5.1624   -1.3007    0.0901 C   0  0  0  0  0  0  0  0  0  0  0  0
   -4.7437    1.4472    0.3268 C   0  0  0  0  0  0  0  0  0  0  0  0
   -2.0182    2.4941    0.1011 C   0  0  0  0  0  0  0  0  0  0  0  0
    1.1994   -1.9157    0.5579 C   0  0  0  0  0  0  0  0  0  0  0  0
    0.9726   -3.9928   -0.6552 C   0  0  0  0  0  0  0  0  0  0  0  0
    2.5578   -2.1721    0.7429 C   0  0  0  0  0  0  0  0  0  0  0  0
   -6.2412   -0.4486    0.3263 C   0  0  0  0  0  0  0  0  0  0  0  0
   -6.0320    0.9254    0.4446 C   0  0  0  0  0  0  0  0  0  0  0  0
    2.1618    3.2904   -0.3218 C   0  0  0  0  0  0  0  0  0  0  0  0
    3.1237   -3.3389    0.2290 C   0  0  0  0  0  0  0  0  0  0  0  0
    0.0002    3.8814    0.5809 C   0  0  0  0  0  0  0  0  0  0  0  0
    0.2331    1.9196   -0.8098 C   0  0  0  0  0  0  0  0  0  0  0  0
    2.3310   -4.2493   -0.4701 C   0  0  0  0  0  0  0  0  0  0  0  0
    1.3636    4.1414    0.4428 C   0  0  0  0  0  0  0  0  0  0  0  0
    1.5966    2.1796   -0.9480 C   0  0  0  0  0  0  0  0  0  0  0  0
    3.6198    3.5679   -0.4696 C   0  0  0  0  0  0  0  0  0  0  0  0
    2.6660   -0.1090    1.9207 C   0  0  0  0  0  0  0  0  0  0  0  0
    4.9483   -4.8156   -0.1527 C   0  0  0  0  0  0  0  0  0  0  0  0
   -1.6419    0.4765   -0.1657 H   0  0  0  0  0  0  0  0  0  0  0  0
   -5.3529   -2.3681    0.0075 H   0  0  0  0  0  0  0  0  0  0  0  0
   -4.6775    2.5203    0.4255 H   0  0  0  0  0  0  0  0  0  0  0  0
    0.7287   -1.0200    0.9462 H   0  0  0  0  0  0  0  0  0  0  0  0
    0.3879   -4.7259   -1.2052 H   0  0  0  0  0  0  0  0  0  0  0  0
   -7.2442   -0.8548    0.4189 H   0  0  0  0  0  0  0  0  0  0  0  0
   -6.8734    1.5876    0.6273 H   0  0  0  0  0  0  0  0  0  0  0  0
   -0.6030    4.5538    1.1853 H   0  0  0  0  0  0  0  0  0  0  0  0
   -0.1672    1.0661   -1.3482 H   0  0  0  0  0  0  0  0  0  0  0  0
    2.7021   -5.1750   -0.8965 H   0  0  0  0  0  0  0  0  0  0  0  0
    1.7847    5.0110    0.9397 H   0  0  0  0  0  0  0  0  0  0  0  0
    2.2094    1.5152   -1.5517 H   0  0  0  0  0  0  0  0  0  0  0  0
    3.4250    0.4974    2.4260 H   0  0  0  0  0  0  0  0  0  0  0  0
    1.9081   -0.3584    2.6711 H   0  0  0  0  0  0  0  0  0  0  0  0
    2.2652    0.4999    1.1099 H   0  0  0  0  0  0  0  0  0  0  0  0
    4.8606   -4.8252   -1.2445 H   0  0  0  0  0  0  0  0  0  0  0  0
    4.4843   -5.6928    0.3109 H   0  0  0  0  0  0  0  0  0  0  0  0
    6.0173   -4.8613    0.0804 H   0  0  0  0  0  0  0  0  0  0  0  0
  1 32  1  0  0  0  0
  2 32  1  0  0  0  0
  3 32  1  0  0  0  0
  4 22  1  0  0  0  0
  4 33  1  0  0  0  0
  5 26  1  0  0  0  0
  5 34  1  0  0  0  0
  6 19  2  0  0  0  0
  7 13  1  0  0  0  0
  7 19  1  0  0  0  0
  7 35  1  0  0  0  0
  8  9  1  0  0  0  0
  8 11  1  0  0  0  0
  8 15  1  0  0  0  0
  9 14  2  0  0  0  0
 10 11  2  0  0  0  0
 10 14  1  0  0  0  0
 12 13  1  0  0  0  0
 12 14  1  0  0  0  0
 12 17  2  0  0  0  0
 13 18  2  0  0  0  0
 15 20  2  0  0  0  0
 15 21  1  0  0  0  0
 16 19  1  0  0  0  0
 16 27  2  0  0  0  0
 16 28  1  0  0  0  0
 17 23  1  0  0  0  0
 17 36  1  0  0  0  0
 18 24  1  0  0  0  0
 18 37  1  0  0  0  0
 20 22  1  0  0  0  0
 20 38  1  0  0  0  0
 21 29  2  0  0  0  0
 21 39  1  0  0  0  0
 22 26  2  0  0  0  0
 23 24  2  0  0  0  0
 23 40  1  0  0  0  0
 24 41  1  0  0  0  0
 25 30  2  0  0  0  0
 25 31  1  0  0  0  0
 25 32  1  0  0  0  0
 26 29  1  0  0  0  0
 27 30  1  0  0  0  0
 27 42  1  0  0  0  0
 28 31  2  0  0  0  0
 28 43  1  0  0  0  0
 29 44  1  0  0  0  0
 30 45  1  0  0  0  0
 31 46  1  0  0  0  0
 33 47  1  0  0  0  0
 33 48  1  0  0  0  0
 33 49  1  0  0  0  0
 34 50  1  0  0  0  0
 34 51  1  0  0  0  0
 34 52  1  0  0  0  0
M  END
> <PUBCHEM_COMPOUND_CID>
134131336

> <PUBCHEM_CONFORMER_RMSD>
1

> <PUBCHEM_CONFORMER_DIVERSEORDER>
1
21
10
14
28
24
15
3
26
9
18
5
23
27
16
11
17
22
2
6
13
7
25
12
20
19
8
4

> <PUBCHEM_MMFF94_PARTIAL_CHARGES>
46
1 -0.34
10 -0.23
11 -0.42
12 0.05
13 0.12
14 0.46
15 -0.02
16 0.09
17 -0.15
18 -0.15
19 0.54
2 -0.34
20 -0.15
21 -0.15
22 0.08
23 -0.15
24 -0.15
25 -0.14
26 0.08
27 -0.15
28 -0.15
29 -0.15
3 -0.34
30 -0.15
31 -0.15
32 1.16
33 0.28
34 0.28
35 0.37
36 0.15
37 0.15
38 0.15
39 0.15
4 -0.36
40 0.15
41 0.15
42 0.15
43 0.15
44 0.15
45 0.15
46 0.15
5 -0.36
6 -0.57
7 -0.55
8 0.86
9 -0.71

> <PUBCHEM_EFFECTIVE_ROTOR_COUNT>
8

> <PUBCHEM_PHARMACOPHORE_FEATURES>
9
1 4 acceptor
1 5 acceptor
1 6 acceptor
1 7 donor
3 9 10 14 cation
5 8 9 10 11 14 rings
6 12 13 17 18 23 24 rings
6 15 20 21 22 26 29 rings
6 16 25 27 28 30 31 rings

> <PUBCHEM_HEAVY_ATOM_COUNT>
34

> <PUBCHEM_ATOM_DEF_STEREO_COUNT>
0

> <PUBCHEM_ATOM_UDEF_STEREO_COUNT>
0

> <PUBCHEM_BOND_DEF_STEREO_COUNT>
0

> <PUBCHEM_BOND_UDEF_STEREO_COUNT>
0

> <PUBCHEM_ISOTOPIC_ATOM_COUNT>
0

> <PUBCHEM_COMPONENT_COUNT>
1

> <PUBCHEM_CACTVS_TAUTO_COUNT>
6

> <PUBCHEM_CONFORMER_ID>
07FEAE8800000001

> <PUBCHEM_MMFF94_ENERGY>
113.3365

> <PUBCHEM_FEATURE_SELFOVERLAP>
45.676

> <PUBCHEM_SHAPE_FINGERPRINT>
10032420 55 17097212714788120513
10256941 240 16023362391836011380
10483366 6 18337968848310391734
11014199 57 17978794506783900688
11135926 11 18336258063177018837
11513181 2 18057044820750355414
12156800 1 15911662137322313713
13402501 40 17838328580262373307
138480 1 18338800009679828229
14028597 1 17701287908504268849
140371 6 17979641135275082309
14114211 68 17898598567631029933
14790565 3 18121782986966552489
14937079 2 18194689164686905393
14955137 171 18337676313271141259
15001296 14 18262516030315520360
15082195 135 18196350710717648903
15297060 5 18127973225105063256
15320467 1 18411138047775799676
15351339 4 18051686943136383560
15400415 2 18050568740318558449
15927050 60 18196940087651886407
15961568 22 18052540963251074735
16719943 64 17977949312580018324
17627616 140 18337955696345071103
19311894 1 17547010092807603014
19611394 137 18188791469450405827
21033648 29 17699544980231408283
21344244 246 18338785819878295495
21796203 349 17689480063168778888
23516275 137 18189918528871298408
23559900 14 18338790105607030857
25019877 29 17130408122093722799
3383291 50 17402327569216063050
45266715 3 16904931594834267453
469060 322 16663477342046293999
5265222 85 17829907768397628620
57091435 65 18409174337146256455
5776283 40 18266198282610506308
581034 39 17982145010787341840
6287921 2 18340473526427770050
6700243 42 17411644414470767734

> <PUBCHEM_SHAPE_MULTIPOLES>
635.37
10.98
8.32
1.02
7.84
5.32
-0.11
-6.31
-1.45
-11.11
1.68
-0.75
0.2
-1.24

> <PUBCHEM_SHAPE_SELFOVERLAP>
1399.038

> <PUBCHEM_SHAPE_VOLUME>
343.5

> <PUBCHEM_COORDINATE_TYPE>
2
5
10

$$$$