134131216
  -OEChem-03242010103D

 49 52  0     0  0  0  0  0  0999 V2000
    5.6017   -2.1205    0.5224 O   0  0  0  0  0  0  0  0  0  0  0  0
   -3.1059    2.9325    0.3653 O   0  0  0  0  0  0  0  0  0  0  0  0
    2.9386    4.5604   -0.3631 O   0  0  0  0  0  0  0  0  0  0  0  0
   -2.1796    0.8010    0.0132 N   0  0  0  0  0  0  0  0  0  0  0  0
    0.1285   -2.4559   -0.2699 N   0  0  0  0  0  0  0  0  0  0  0  0
   -0.7160   -1.5262    0.1986 N   0  0  0  0  0  0  0  0  0  0  0  0
   -1.7296   -3.2124   -0.9225 N   0  0  0  0  0  0  0  0  0  0  0  0
   -0.4284   -3.4739   -0.9405 N   0  0  0  0  0  0  0  0  0  0  0  0
   -3.1512   -1.4330   -0.0035 C   0  0  0  0  0  0  0  0  0  0  0  0
   -3.2853   -0.0497    0.1152 C   0  0  0  0  0  0  0  0  0  0  0  0
   -1.8682   -2.0434   -0.2351 C   0  0  0  0  0  0  0  0  0  0  0  0
   -4.2737   -2.2541    0.1021 C   0  0  0  0  0  0  0  0  0  0  0  0
   -4.5420    0.5124    0.3394 C   0  0  0  0  0  0  0  0  0  0  0  0
    1.5012   -2.3712   -0.0719 C   0  0  0  0  0  0  0  0  0  0  0  0
   -0.8102    2.8177    0.0071 C   0  0  0  0  0  0  0  0  0  0  0  0
   -2.1531    2.1942    0.1395 C   0  0  0  0  0  0  0  0  0  0  0  0
   -5.5305   -1.6919    0.3264 C   0  0  0  0  0  0  0  0  0  0  0  0
   -5.6647   -0.3087    0.4451 C   0  0  0  0  0  0  0  0  0  0  0  0
    2.3413   -3.3638   -0.5767 C   0  0  0  0  0  0  0  0  0  0  0  0
    2.0390   -1.2945    0.6333 C   0  0  0  0  0  0  0  0  0  0  0  0
   -0.5404    4.0321    0.6382 C   0  0  0  0  0  0  0  0  0  0  0  0
    0.1797    2.1891   -0.7483 C   0  0  0  0  0  0  0  0  0  0  0  0
    4.2569   -2.2029    0.3286 C   0  0  0  0  0  0  0  0  0  0  0  0
    3.7190   -3.2796   -0.3765 C   0  0  0  0  0  0  0  0  0  0  0  0
    3.4168   -1.2103    0.8335 C   0  0  0  0  0  0  0  0  0  0  0  0
    1.7094    3.9892   -0.2415 C   0  0  0  0  0  0  0  0  0  0  0  0
    0.7195    4.6178    0.5139 C   0  0  0  0  0  0  0  0  0  0  0  0
    1.4395    2.7748   -0.8725 C   0  0  0  0  0  0  0  0  0  0  0  0
    6.0844   -0.9923    1.2506 C   0  0  0  0  0  0  0  0  0  0  0  0
    3.9034    3.8634   -1.1503 C   0  0  0  0  0  0  0  0  0  0  0  0
   -1.2923    0.3302   -0.1211 H   0  0  0  0  0  0  0  0  0  0  0  0
   -4.1966   -3.3356    0.0188 H   0  0  0  0  0  0  0  0  0  0  0  0
   -4.7412    1.5690    0.4374 H   0  0  0  0  0  0  0  0  0  0  0  0
   -6.4046   -2.3311    0.4096 H   0  0  0  0  0  0  0  0  0  0  0  0
   -6.6443    0.1275    0.6185 H   0  0  0  0  0  0  0  0  0  0  0  0
    1.9613   -4.2180   -1.1309 H   0  0  0  0  0  0  0  0  0  0  0  0
    1.4169   -0.5020    1.0416 H   0  0  0  0  0  0  0  0  0  0  0  0
   -1.2957    4.5358    1.2356 H   0  0  0  0  0  0  0  0  0  0  0  0
    0.0043    1.2645   -1.2899 H   0  0  0  0  0  0  0  0  0  0  0  0
    4.3689   -4.0554   -0.7722 H   0  0  0  0  0  0  0  0  0  0  0  0
    3.7679   -0.3472    1.3889 H   0  0  0  0  0  0  0  0  0  0  0  0
    0.9245    5.5633    1.0087 H   0  0  0  0  0  0  0  0  0  0  0  0
    2.1593    2.2370   -1.4801 H   0  0  0  0  0  0  0  0  0  0  0  0
    7.1735   -1.0877    1.3098 H   0  0  0  0  0  0  0  0  0  0  0  0
    5.7076   -0.9860    2.2790 H   0  0  0  0  0  0  0  0  0  0  0  0
    5.8737   -0.0544    0.7256 H   0  0  0  0  0  0  0  0  0  0  0  0
    4.1481    2.8879   -0.7162 H   0  0  0  0  0  0  0  0  0  0  0  0
    3.5884    3.7852   -2.1964 H   0  0  0  0  0  0  0  0  0  0  0  0
    4.8223    4.4586   -1.1369 H   0  0  0  0  0  0  0  0  0  0  0  0
  1 23  1  0  0  0  0
  1 29  1  0  0  0  0
  2 16  2  0  0  0  0
  3 26  1  0  0  0  0
  3 30  1  0  0  0  0
  4 10  1  0  0  0  0
  4 16  1  0  0  0  0
  4 31  1  0  0  0  0
  5  6  1  0  0  0  0
  5  8  1  0  0  0  0
  5 14  1  0  0  0  0
  6 11  2  0  0  0  0
  7  8  2  0  0  0  0
  7 11  1  0  0  0  0
  9 10  1  0  0  0  0
  9 11  1  0  0  0  0
  9 12  2  0  0  0  0
 10 13  2  0  0  0  0
 12 17  1  0  0  0  0
 12 32  1  0  0  0  0
 13 18  1  0  0  0  0
 13 33  1  0  0  0  0
 14 19  2  0  0  0  0
 14 20  1  0  0  0  0
 15 16  1  0  0  0  0
 15 21  2  0  0  0  0
 15 22  1  0  0  0  0
 17 18  2  0  0  0  0
 17 34  1  0  0  0  0
 18 35  1  0  0  0  0
 19 24  1  0  0  0  0
 19 36  1  0  0  0  0
 20 25  2  0  0  0  0
 20 37  1  0  0  0  0
 21 27  1  0  0  0  0
 21 38  1  0  0  0  0
 22 28  2  0  0  0  0
 22 39  1  0  0  0  0
 23 24  2  0  0  0  0
 23 25  1  0  0  0  0
 24 40  1  0  0  0  0
 25 41  1  0  0  0  0
 26 27  2  0  0  0  0
 26 28  1  0  0  0  0
 27 42  1  0  0  0  0
 28 43  1  0  0  0  0
 29 44  1  0  0  0  0
 29 45  1  0  0  0  0
 29 46  1  0  0  0  0
 30 47  1  0  0  0  0
 30 48  1  0  0  0  0
 30 49  1  0  0  0  0
M  END
> <PUBCHEM_COMPOUND_CID>
134131216

> <PUBCHEM_CONFORMER_RMSD>
0.8

> <PUBCHEM_CONFORMER_DIVERSEORDER>
1
22
18
28
8
20
25
3
16
33
14
7
24
17
11
32
27
31
2
10
21
4
12
29
19
26
9
30
5
23
13
15
6

> <PUBCHEM_MMFF94_PARTIAL_CHARGES>
43
1 -0.36
10 0.12
11 0.46
12 -0.15
13 -0.15
14 -0.02
15 0.09
16 0.54
17 -0.15
18 -0.15
19 -0.15
2 -0.57
20 -0.15
21 -0.15
22 -0.15
23 0.08
24 -0.15
25 -0.15
26 0.08
27 -0.15
28 -0.15
29 0.28
3 -0.36
30 0.28
31 0.37
32 0.15
33 0.15
34 0.15
35 0.15
36 0.15
37 0.15
38 0.15
39 0.15
4 -0.55
40 0.15
41 0.15
42 0.15
43 0.15
5 0.86
6 -0.71
7 -0.23
8 -0.42
9 0.05

> <PUBCHEM_EFFECTIVE_ROTOR_COUNT>
7

> <PUBCHEM_PHARMACOPHORE_FEATURES>
9
1 1 acceptor
1 2 acceptor
1 3 acceptor
1 4 donor
3 6 7 11 cation
5 5 6 7 8 11 rings
6 14 19 20 23 24 25 rings
6 15 21 22 26 27 28 rings
6 9 10 12 13 17 18 rings

> <PUBCHEM_HEAVY_ATOM_COUNT>
30

> <PUBCHEM_ATOM_DEF_STEREO_COUNT>
0

> <PUBCHEM_ATOM_UDEF_STEREO_COUNT>
0

> <PUBCHEM_BOND_DEF_STEREO_COUNT>
0

> <PUBCHEM_BOND_UDEF_STEREO_COUNT>
0

> <PUBCHEM_ISOTOPIC_ATOM_COUNT>
0

> <PUBCHEM_COMPONENT_COUNT>
1

> <PUBCHEM_CACTVS_TAUTO_COUNT>
6

> <PUBCHEM_CONFORMER_ID>
07FEAE1000000001

> <PUBCHEM_MMFF94_ENERGY>
108.9001

> <PUBCHEM_FEATURE_SELFOVERLAP>
45.672

> <PUBCHEM_SHAPE_FINGERPRINT>
10190108 129 17111020786023110651
10256941 240 16671880794033420148
10290309 65 18121492724888285221
10670039 82 18192729843107841974
10693767 8 15540090334843911271
1100329 8 18338516459901747174
11578080 2 17460848896144372583
11595378 159 18044358453715251698
12156800 1 16342047323852045473
13561361 72 18195232340225202914
138480 1 18410858771811795049
140371 6 18195816172172525205
14114211 68 17681860701044232461
14117953 113 18268710520176014109
14394314 77 18411989069544447464
14415361 192 17314211298748676892
14790565 3 17760936533716281389
15320467 1 18339080496814210184
15400415 2 16608853433492475316
15419008 145 18120639251258438450
15927050 60 17908710875352006727
15961568 22 18340207393322660574
16719943 64 17689437509039322420
167882 2 18337670944825174215
17627616 140 18121217838015814316
17859628 97 17761779863735181693
18336668 15 18113902632468820028
19611394 137 18188223111800843066
21033648 29 17844790530305332227
21344244 246 18122610911618835919
21360443 120 17901111029363616220
21796203 349 17976581331120622160
23516275 137 18044389446378738144
23559900 14 18339349808691699097
25019877 29 17346589772882404134
373842 8 18409164441826553776
469060 322 18267877081271377611
474144 1 18114760303594986372
5385378 56 18194416708898182961
57091435 65 18265058113962085759
57676310 188 18189905399911057052
653340 110 18052253995269044434
6700243 42 17555767346441178230
9777508 108 17474668347886115546

> <PUBCHEM_SHAPE_MULTIPOLES>
574.87
10.85
7.5
0.91
0.16
7.47
0.02
-7.1
-2.7
-6.25
1.16
-0.64
0.06
-1.49

> <PUBCHEM_SHAPE_SELFOVERLAP>
1263.902

> <PUBCHEM_SHAPE_VOLUME>
310.2

> <PUBCHEM_COORDINATE_TYPE>
2
5
10

$$$$