56946617
  -OEChem-03242010093D

 44 46  0     0  0  0  0  0  0999 V2000
    5.7499    2.4752    0.5937 O   0  0  0  0  0  0  0  0  0  0  0  0
    0.9948   -1.9100   -0.8788 O   0  0  0  0  0  0  0  0  0  0  0  0
    5.6933   -2.0850   -0.8678 O   0  0  0  0  0  0  0  0  0  0  0  0
    7.1129    0.1717   -0.1214 O   0  0  0  0  0  0  0  0  0  0  0  0
   -1.1179   -3.4024    0.7587 O   0  5  0  0  0  0  0  0  0  0  0  0
   -0.6758   -1.9958    2.3851 O   0  0  0  0  0  0  0  0  0  0  0  0
    1.5440    0.2609   -0.1775 N   0  0  0  0  0  0  0  0  0  0  0  0
   -1.1071   -2.2429    1.2345 N   0  3  0  0  0  0  0  0  0  0  0  0
   -3.4622    0.2091   -0.2457 C   0  0  0  0  0  0  0  0  0  0  0  0
   -0.7574   -0.4541   -0.4076 C   0  0  0  0  0  0  0  0  0  0  0  0
   -1.6014   -1.1702    0.4412 C   0  0  0  0  0  0  0  0  0  0  0  0
   -2.9538   -0.8386    0.5221 C   0  0  0  0  0  0  0  0  0  0  0  0
   -4.8649    0.5537   -0.1623 C   0  0  0  0  0  0  0  0  0  0  0  0
   -2.6181    0.9252   -1.0945 C   0  0  0  0  0  0  0  0  0  0  0  0
   -1.2656    0.5937   -1.1756 C   0  0  0  0  0  0  0  0  0  0  0  0
    0.6615   -0.7712   -0.5194 C   0  0  0  0  0  0  0  0  0  0  0  0
    2.9604    0.2385   -0.1653 C   0  0  0  0  0  0  0  0  0  0  0  0
    3.6722    1.3777    0.2108 C   0  0  0  0  0  0  0  0  0  0  0  0
   -5.2974    1.4937    0.7729 C   0  0  0  0  0  0  0  0  0  0  0  0
   -5.7846   -0.0541   -1.0168 C   0  0  0  0  0  0  0  0  0  0  0  0
    3.6433   -0.9226   -0.5271 C   0  0  0  0  0  0  0  0  0  0  0  0
    5.0668    1.3556    0.2251 C   0  0  0  0  0  0  0  0  0  0  0  0
    5.0381   -0.9446   -0.5128 C   0  0  0  0  0  0  0  0  0  0  0  0
    5.7497    0.1945   -0.1367 C   0  0  0  0  0  0  0  0  0  0  0  0
   -6.6498    1.8262    0.8537 C   0  0  0  0  0  0  0  0  0  0  0  0
   -7.1368    0.2783   -0.9363 C   0  0  0  0  0  0  0  0  0  0  0  0
   -7.5694    1.2184   -0.0010 C   0  0  0  0  0  0  0  0  0  0  0  0
    4.9754    3.6192    0.9486 C   0  0  0  0  0  0  0  0  0  0  0  0
   -3.6113   -1.3986    1.1852 H   0  0  0  0  0  0  0  0  0  0  0  0
   -2.9985    1.7439   -1.7009 H   0  0  0  0  0  0  0  0  0  0  0  0
   -0.6236    1.1586   -1.8468 H   0  0  0  0  0  0  0  0  0  0  0  0
    1.1299    1.1451    0.1108 H   0  0  0  0  0  0  0  0  0  0  0  0
    3.0878    2.2509    0.4819 H   0  0  0  0  0  0  0  0  0  0  0  0
    3.1488   -1.8354   -0.8269 H   0  0  0  0  0  0  0  0  0  0  0  0
   -4.5938    1.9769    1.4468 H   0  0  0  0  0  0  0  0  0  0  0  0
   -5.4643   -0.7890   -1.7516 H   0  0  0  0  0  0  0  0  0  0  0  0
   -6.9867    2.5582    1.5818 H   0  0  0  0  0  0  0  0  0  0  0  0
   -7.8531   -0.1948   -1.6016 H   0  0  0  0  0  0  0  0  0  0  0  0
   -8.6224    1.4772    0.0618 H   0  0  0  0  0  0  0  0  0  0  0  0
    5.0430   -2.7706   -1.0975 H   0  0  0  0  0  0  0  0  0  0  0  0
    7.4084   -0.7125   -0.4000 H   0  0  0  0  0  0  0  0  0  0  0  0
    4.3866    3.9872    0.1015 H   0  0  0  0  0  0  0  0  0  0  0  0
    4.3606    3.4316    1.8356 H   0  0  0  0  0  0  0  0  0  0  0  0
    5.6798    4.4146    1.2140 H   0  0  0  0  0  0  0  0  0  0  0  0
  1 22  1  0  0  0  0
  1 28  1  0  0  0  0
  2 16  2  0  0  0  0
  3 23  1  0  0  0  0
  3 40  1  0  0  0  0
  4 24  1  0  0  0  0
  4 41  1  0  0  0  0
  5  8  1  0  0  0  0
  6  8  2  0  0  0  0
  7 16  1  0  0  0  0
  7 17  1  0  0  0  0
  7 32  1  0  0  0  0
  8 11  1  0  0  0  0
  9 12  2  0  0  0  0
  9 13  1  0  0  0  0
  9 14  1  0  0  0  0
 10 11  2  0  0  0  0
 10 15  1  0  0  0  0
 10 16  1  0  0  0  0
 11 12  1  0  0  0  0
 12 29  1  0  0  0  0
 13 19  2  0  0  0  0
 13 20  1  0  0  0  0
 14 15  2  0  0  0  0
 14 30  1  0  0  0  0
 15 31  1  0  0  0  0
 17 18  1  0  0  0  0
 17 21  2  0  0  0  0
 18 22  2  0  0  0  0
 18 33  1  0  0  0  0
 19 25  1  0  0  0  0
 19 35  1  0  0  0  0
 20 26  2  0  0  0  0
 20 36  1  0  0  0  0
 21 23  1  0  0  0  0
 21 34  1  0  0  0  0
 22 24  1  0  0  0  0
 23 24  2  0  0  0  0
 25 27  2  0  0  0  0
 25 37  1  0  0  0  0
 26 27  1  0  0  0  0
 26 38  1  0  0  0  0
 27 39  1  0  0  0  0
 28 42  1  0  0  0  0
 28 43  1  0  0  0  0
 28 44  1  0  0  0  0
M  CHG  2   5  -1   8   1
M  END
> <PUBCHEM_COMPOUND_CID>
56946617

> <PUBCHEM_CONFORMER_RMSD>
0.8

> <PUBCHEM_CONFORMER_DIVERSEORDER>
3
18
13
21
17
20
25
2
11
16
10
23
5
14
24
22
7
1
9
6
19
8
15
4
12

> <PUBCHEM_MMFF94_PARTIAL_CHARGES>
39
1 -0.36
10 0.09
11 0.13
12 -0.15
14 -0.15
15 -0.15
16 0.54
17 0.12
18 -0.15
19 -0.15
2 -0.57
20 -0.15
21 -0.15
22 0.08
23 0.08
24 0.08
25 -0.15
26 -0.15
27 -0.15
28 0.28
29 0.15
3 -0.53
30 0.15
31 0.15
32 0.37
33 0.15
34 0.15
35 0.15
36 0.15
37 0.15
38 0.15
39 0.15
4 -0.53
40 0.45
41 0.45
5 -0.52
6 -0.52
7 -0.55
8 0.91

> <PUBCHEM_EFFECTIVE_ROTOR_COUNT>
6

> <PUBCHEM_PHARMACOPHORE_FEATURES>
11
1 1 acceptor
1 2 acceptor
1 3 donor
1 4 donor
1 5 acceptor
1 5 anion
1 6 acceptor
1 7 donor
6 13 19 20 25 26 27 rings
6 17 18 21 22 23 24 rings
6 9 10 11 12 14 15 rings

> <PUBCHEM_HEAVY_ATOM_COUNT>
28

> <PUBCHEM_ATOM_DEF_STEREO_COUNT>
0

> <PUBCHEM_ATOM_UDEF_STEREO_COUNT>
0

> <PUBCHEM_BOND_DEF_STEREO_COUNT>
0

> <PUBCHEM_BOND_UDEF_STEREO_COUNT>
0

> <PUBCHEM_ISOTOPIC_ATOM_COUNT>
0

> <PUBCHEM_COMPONENT_COUNT>
1

> <PUBCHEM_CACTVS_TAUTO_COUNT>
24

> <PUBCHEM_CONFORMER_ID>
0364EFB900000003

> <PUBCHEM_MMFF94_ENERGY>
108.3046

> <PUBCHEM_FEATURE_SELFOVERLAP>
55.908

> <PUBCHEM_SHAPE_FINGERPRINT>
10 15 16732987539214347412
102385 1 16665969896557204861
10595046 47 17988641862103376559
10835480 77 18340766061183157760
10906281 52 18335719250891938693
11456790 92 18337954489570258776
11524674 6 15574720196942654753
12236239 1 17203325581083420063
12925494 130 18124592239334250360
13167372 99 18060140890448003320
13533116 47 18115584842763766578
13540713 5 16808157962482200887
13631057 29 18338512058858423039
13673619 4 8718833089172652158
14556957 393 14692305000507367417
14849402 71 18201157767149142657
14933364 13 18272652333665060261
15183329 4 16343988000809291513
15849732 13 16081376240941835103
16994733 274 18060417980990923793
20157964 124 18131071524170156870
20281389 69 18409728439625751877
20567600 254 18040429976241654767
21033648 29 18187085104448770416
21424621 283 18409168788412702033
21521721 280 18412266130058895899
22122407 14 17846226591317601496
22224240 67 18113900455806526369
22956985 138 14925885066518838304
23198884 109 18060138726533033125
23536379 177 17775283833624411655
23559900 14 18186811283599965150
23622692 88 17022905657230060951
24771750 20 12028641338303762891
2838139 119 18343582928237057877
3009799 131 13830125066758428611
335352 9 18343586244658270396
34797466 226 17703796903549218717
3633792 109 17346607335672972502
397830 11 17459765893732682273
4073 2 18335702805768214490
4093350 32 17917429783448301598
5104073 3 18261390083111147698
5385378 56 17895758379189483779
5758199 1 18335143064513721553
58902169 19 17561074813374369804
59682541 35 18187374234022683657
59755656 215 18115028493927204775
59755656 520 18334288778033229759

> <PUBCHEM_SHAPE_MULTIPOLES>
531.05
20.02
2.73
1.18
4.92
0.36
-0.36
11.35
1.19
-3.13
-1.23
0.74
-0.39
1.21

> <PUBCHEM_SHAPE_SELFOVERLAP>
1165.708

> <PUBCHEM_SHAPE_VOLUME>
286.4

> <PUBCHEM_COORDINATE_TYPE>
2
5
10

$$$$