57385024
  -OEChem-03242010103D

 48 50  0     1  0  0  0  0  0999 V2000
    4.8323   -0.3623   -1.5834 O   0  0  0  0  0  0  0  0  0  0  0  0
    0.8473    1.6660    3.1278 O   0  0  0  0  0  0  0  0  0  0  0  0
   -1.1147    1.5914    1.1271 O   0  0  0  0  0  0  0  0  0  0  0  0
   -3.3120   -0.9591    1.5663 O   0  0  0  0  0  0  0  0  0  0  0  0
    3.0197    0.8735    0.2302 N   0  0  0  0  0  0  0  0  0  0  0  0
    2.6342    1.3408    1.5602 C   0  0  0  0  0  0  0  0  0  0  0  0
    4.2322    1.5621   -0.2336 C   0  0  0  0  0  0  0  0  0  0  0  0
    3.2351   -0.5802    0.2300 C   0  0  0  0  0  0  0  0  0  0  0  0
    1.1393    1.1487    1.8264 C   0  0  2  0  0  0  0  0  0  0  0  0
    4.6212    1.0497   -1.6173 C   0  0  0  0  0  0  0  0  0  0  0  0
    3.6486   -1.0425   -1.1644 C   0  0  0  0  0  0  0  0  0  0  0  0
    0.2478    1.8585    0.8099 C   0  0  0  0  0  0  0  0  0  0  0  0
   -1.9993    1.5832    0.0820 C   0  0  0  0  0  0  0  0  0  0  0  0
   -2.7425    0.4416   -0.2179 C   0  0  0  0  0  0  0  0  0  0  0  0
   -2.1540    2.7377   -0.6853 C   0  0  0  0  0  0  0  0  0  0  0  0
   -2.5974   -0.7736    0.5714 C   0  0  0  0  0  0  0  0  0  0  0  0
   -3.6404    0.4544   -1.2852 C   0  0  0  0  0  0  0  0  0  0  0  0
   -3.0521    2.7506   -1.7528 C   0  0  0  0  0  0  0  0  0  0  0  0
   -3.7952    1.6089   -2.0527 C   0  0  0  0  0  0  0  0  0  0  0  0
   -1.6030   -1.8339    0.2302 C   0  0  0  0  0  0  0  0  0  0  0  0
   -1.5054   -2.9792    1.0203 C   0  0  0  0  0  0  0  0  0  0  0  0
   -0.7728   -1.6796   -0.8798 C   0  0  0  0  0  0  0  0  0  0  0  0
   -0.5774   -3.9703    0.7004 C   0  0  0  0  0  0  0  0  0  0  0  0
    0.1552   -2.6706   -1.1999 C   0  0  0  0  0  0  0  0  0  0  0  0
    0.2529   -3.8159   -0.4097 C   0  0  0  0  0  0  0  0  0  0  0  0
    3.2307    0.8724    2.3548 H   0  0  0  0  0  0  0  0  0  0  0  0
    2.8397    2.4168    1.6546 H   0  0  0  0  0  0  0  0  0  0  0  0
    4.0586    2.6426   -0.2960 H   0  0  0  0  0  0  0  0  0  0  0  0
    5.0588    1.3886    0.4678 H   0  0  0  0  0  0  0  0  0  0  0  0
    4.0226   -0.8490    0.9463 H   0  0  0  0  0  0  0  0  0  0  0  0
    2.3221   -1.1109    0.5179 H   0  0  0  0  0  0  0  0  0  0  0  0
    0.8818    0.0847    1.8614 H   0  0  0  0  0  0  0  0  0  0  0  0
    3.8669   -2.1152   -1.1527 H   0  0  0  0  0  0  0  0  0  0  0  0
    2.8523   -0.8734   -1.8991 H   0  0  0  0  0  0  0  0  0  0  0  0
    3.8565    1.2877   -2.3668 H   0  0  0  0  0  0  0  0  0  0  0  0
    5.5569    1.5182   -1.9388 H   0  0  0  0  0  0  0  0  0  0  0  0
    0.4768    1.5129   -0.2055 H   0  0  0  0  0  0  0  0  0  0  0  0
    0.4019    2.9428    0.8608 H   0  0  0  0  0  0  0  0  0  0  0  0
    1.0418    2.6188    3.1222 H   0  0  0  0  0  0  0  0  0  0  0  0
   -1.5892    3.6378   -0.4587 H   0  0  0  0  0  0  0  0  0  0  0  0
   -4.2256   -0.4287   -1.5287 H   0  0  0  0  0  0  0  0  0  0  0  0
   -3.1741    3.6501   -2.3491 H   0  0  0  0  0  0  0  0  0  0  0  0
   -4.4947    1.6191   -2.8835 H   0  0  0  0  0  0  0  0  0  0  0  0
   -2.1399   -3.1244    1.8904 H   0  0  0  0  0  0  0  0  0  0  0  0
   -0.8167   -0.8028   -1.5186 H   0  0  0  0  0  0  0  0  0  0  0  0
   -0.5009   -4.8621    1.3155 H   0  0  0  0  0  0  0  0  0  0  0  0
    0.8011   -2.5516   -2.0648 H   0  0  0  0  0  0  0  0  0  0  0  0
    0.9759   -4.5871   -0.6588 H   0  0  0  0  0  0  0  0  0  0  0  0
  1 10  1  0  0  0  0
  1 11  1  0  0  0  0
  2  9  1  0  0  0  0
  2 39  1  0  0  0  0
  3 12  1  0  0  0  0
  3 13  1  0  0  0  0
  4 16  2  0  0  0  0
  5  6  1  0  0  0  0
  5  7  1  0  0  0  0
  5  8  1  0  0  0  0
  6  9  1  0  0  0  0
  6 26  1  0  0  0  0
  6 27  1  0  0  0  0
  7 10  1  0  0  0  0
  7 28  1  0  0  0  0
  7 29  1  0  0  0  0
  8 11  1  0  0  0  0
  8 30  1  0  0  0  0
  8 31  1  0  0  0  0
  9 12  1  0  0  0  0
  9 32  1  0  0  0  0
 10 35  1  0  0  0  0
 10 36  1  0  0  0  0
 11 33  1  0  0  0  0
 11 34  1  0  0  0  0
 12 37  1  0  0  0  0
 12 38  1  0  0  0  0
 13 14  1  0  0  0  0
 13 15  2  0  0  0  0
 14 16  1  0  0  0  0
 14 17  2  0  0  0  0
 15 18  1  0  0  0  0
 15 40  1  0  0  0  0
 16 20  1  0  0  0  0
 17 19  1  0  0  0  0
 17 41  1  0  0  0  0
 18 19  2  0  0  0  0
 18 42  1  0  0  0  0
 19 43  1  0  0  0  0
 20 21  2  0  0  0  0
 20 22  1  0  0  0  0
 21 23  1  0  0  0  0
 21 44  1  0  0  0  0
 22 24  2  0  0  0  0
 22 45  1  0  0  0  0
 23 25  2  0  0  0  0
 23 46  1  0  0  0  0
 24 25  1  0  0  0  0
 24 47  1  0  0  0  0
 25 48  1  0  0  0  0
M  END
> <PUBCHEM_COMPOUND_CID>
57385024

> <PUBCHEM_CONFORMER_RMSD>
1

> <PUBCHEM_CONFORMER_DIVERSEORDER>
1
116
17
104
50
71
79
111
25
96
120
84
11
24
61
64
41
108
72
27
69
39
109
55
45
73
80
112
3
97
56
53
100
60
38
62
88
34
42
106
94
95
30
26
68
47
18
43
49
23
46
110
2
74
75
7
98
19
114
51
70
52
35
102
76
93
65
118
115
8
119
57
12
20
107
40
6
105
31
91
63
99
78
67
16
29
37
36
113
9
33
13
90
117
77
101
85
81
32
59
58
21
82
83
22
14
87
28
48
5
15
103
86
4
89
44
10
54
92
66

> <PUBCHEM_MMFF94_PARTIAL_CHARGES>
35
1 -0.56
10 0.28
11 0.28
12 0.28
13 0.08
14 0.09
15 -0.15
16 0.4
17 -0.15
18 -0.15
19 -0.15
2 -0.68
20 0.09
21 -0.15
22 -0.15
23 -0.15
24 -0.15
25 -0.15
3 -0.36
39 0.4
4 -0.57
40 0.15
41 0.15
42 0.15
43 0.15
44 0.15
45 0.15
46 0.15
47 0.15
48 0.15
5 -0.81
6 0.27
7 0.27
8 0.27
9 0.28

> <PUBCHEM_EFFECTIVE_ROTOR_COUNT>
8.2

> <PUBCHEM_PHARMACOPHORE_FEATURES>
9
1 1 acceptor
1 2 acceptor
1 2 donor
1 3 acceptor
1 4 acceptor
1 5 cation
6 1 5 7 8 10 11 rings
6 13 14 15 17 18 19 rings
6 20 21 22 23 24 25 rings

> <PUBCHEM_HEAVY_ATOM_COUNT>
25

> <PUBCHEM_ATOM_DEF_STEREO_COUNT>
0

> <PUBCHEM_ATOM_UDEF_STEREO_COUNT>
1

> <PUBCHEM_BOND_DEF_STEREO_COUNT>
0

> <PUBCHEM_BOND_UDEF_STEREO_COUNT>
0

> <PUBCHEM_ISOTOPIC_ATOM_COUNT>
0

> <PUBCHEM_COMPONENT_COUNT>
1

> <PUBCHEM_CACTVS_TAUTO_COUNT>
1

> <PUBCHEM_CONFORMER_ID>
036BA04000000001

> <PUBCHEM_MMFF94_ENERGY>
75.7688

> <PUBCHEM_FEATURE_SELFOVERLAP>
45.676

> <PUBCHEM_SHAPE_FINGERPRINT>
10759866 29 18260272949738938186
107951 10 17748831791230997835
11370993 70 18335134246334037556
12047536 79 10228338477611569797
12156800 1 13891690154344724346
12363563 72 16988842753048471188
12403259 327 16050719881401577459
12788726 201 17751070529985936139
133893 2 17832975054178663113
13402501 40 18200042853187776966
14251757 5 18264220277807165894
14468879 13 17823145540189855125
15163728 17 17316746691348594141
15463212 79 17967808405594970432
15475509 35 13323151422391313637
15840311 113 13696966452662518439
16067690 210 15649623227983291942
17780758 139 11887402322749217524
20642791 239 17111009236464673597
21285901 2 17334739438832731263
22907989 373 18334295409246320773
23366157 5 17538824903328276993
238 59 18128519505778510335
27425 322 16805900484653145725
3298306 158 18267007376395576485
3524813 1 18342185470121735302
5283178 26 18057623129205736835
59755656 215 18339062819451708285
81228 2 17691945469334485587
9981440 41 18188766146190742107

> <PUBCHEM_SHAPE_MULTIPOLES>
486.03
7.79
4.42
2.1
7.09
4.2
-0.71
-4.58
4.32
-2.14
0.17
0.4
-1.04
1.98

> <PUBCHEM_SHAPE_SELFOVERLAP>
1029.312

> <PUBCHEM_SHAPE_VOLUME>
271

> <PUBCHEM_COORDINATE_TYPE>
2
5
10

$$$$