9945282
  -OEChem-03242010103D

 37 39  0     0  0  0  0  0  0999 V2000
    6.4053   -0.7747   -0.4846 Cl  0  0  0  0  0  0  0  0  0  0  0  0
    0.7984    2.6926    0.2569 O   0  0  0  0  0  0  0  0  0  0  0  0
   -5.8677   -0.1173   -0.5996 O   0  0  0  0  0  0  0  0  0  0  0  0
   -4.1776    1.0346   -1.5883 O   0  0  0  0  0  0  0  0  0  0  0  0
   -0.2766    0.7008    0.2733 N   0  0  0  0  0  0  0  0  0  0  0  0
   -2.4517    0.1848    0.5174 C   0  0  0  0  0  0  0  0  0  0  0  0
   -1.7355   -1.0244    0.3572 C   0  0  0  0  0  0  0  0  0  0  0  0
   -1.5452    1.2137    0.4688 C   0  0  0  0  0  0  0  0  0  0  0  0
   -0.3814   -0.6931    0.2097 C   0  0  0  0  0  0  0  0  0  0  0  0
   -3.9121    0.3166    0.7070 C   0  0  0  0  0  0  0  0  0  0  0  0
   -2.1272   -2.3792    0.3273 C   0  0  0  0  0  0  0  0  0  0  0  0
    0.5873   -1.6978    0.0216 C   0  0  0  0  0  0  0  0  0  0  0  0
   -1.8378    2.6614    0.5964 C   0  0  0  0  0  0  0  0  0  0  0  0
    0.9034    1.4720    0.1946 C   0  0  0  0  0  0  0  0  0  0  0  0
   -1.1631   -3.3730    0.1468 C   0  0  0  0  0  0  0  0  0  0  0  0
    0.1754   -3.0342   -0.0048 C   0  0  0  0  0  0  0  0  0  0  0  0
    2.2605    0.9167    0.0272 C   0  0  0  0  0  0  0  0  0  0  0  0
   -4.6345    0.4478   -0.6154 C   0  0  0  0  0  0  0  0  0  0  0  0
    2.7753    0.7201   -1.2514 C   0  0  0  0  0  0  0  0  0  0  0  0
    3.0203    0.5936    1.1487 C   0  0  0  0  0  0  0  0  0  0  0  0
    4.0585    0.1967   -1.4100 C   0  0  0  0  0  0  0  0  0  0  0  0
    4.3035    0.0703    0.9903 C   0  0  0  0  0  0  0  0  0  0  0  0
    4.8228   -0.1281   -0.2892 C   0  0  0  0  0  0  0  0  0  0  0  0
   -4.1782    1.1740    1.3326 H   0  0  0  0  0  0  0  0  0  0  0  0
   -4.2943   -0.5729    1.2228 H   0  0  0  0  0  0  0  0  0  0  0  0
   -3.1708   -2.6598    0.4403 H   0  0  0  0  0  0  0  0  0  0  0  0
    1.6402   -1.4987   -0.1041 H   0  0  0  0  0  0  0  0  0  0  0  0
   -2.9062    2.8616    0.7169 H   0  0  0  0  0  0  0  0  0  0  0  0
   -1.3403    3.0877    1.4736 H   0  0  0  0  0  0  0  0  0  0  0  0
   -1.5287    3.2064   -0.3017 H   0  0  0  0  0  0  0  0  0  0  0  0
   -1.4637   -4.4168    0.1228 H   0  0  0  0  0  0  0  0  0  0  0  0
    0.9150   -3.8180   -0.1473 H   0  0  0  0  0  0  0  0  0  0  0  0
    2.1874    0.9698   -2.1308 H   0  0  0  0  0  0  0  0  0  0  0  0
    2.6240    0.7444    2.1494 H   0  0  0  0  0  0  0  0  0  0  0  0
    4.4498    0.0469   -2.4130 H   0  0  0  0  0  0  0  0  0  0  0  0
    4.8872   -0.1787    1.8728 H   0  0  0  0  0  0  0  0  0  0  0  0
   -6.3316   -0.0075   -1.4570 H   0  0  0  0  0  0  0  0  0  0  0  0
  1 23  1  0  0  0  0
  2 14  2  0  0  0  0
  3 18  1  0  0  0  0
  3 37  1  0  0  0  0
  4 18  2  0  0  0  0
  5  8  1  0  0  0  0
  5  9  1  0  0  0  0
  5 14  1  0  0  0  0
  6  7  1  0  0  0  0
  6  8  2  0  0  0  0
  6 10  1  0  0  0  0
  7  9  1  0  0  0  0
  7 11  2  0  0  0  0
  8 13  1  0  0  0  0
  9 12  2  0  0  0  0
 10 18  1  0  0  0  0
 10 24  1  0  0  0  0
 10 25  1  0  0  0  0
 11 15  1  0  0  0  0
 11 26  1  0  0  0  0
 12 16  1  0  0  0  0
 12 27  1  0  0  0  0
 13 28  1  0  0  0  0
 13 29  1  0  0  0  0
 13 30  1  0  0  0  0
 14 17  1  0  0  0  0
 15 16  2  0  0  0  0
 15 31  1  0  0  0  0
 16 32  1  0  0  0  0
 17 19  2  0  0  0  0
 17 20  1  0  0  0  0
 19 21  1  0  0  0  0
 19 33  1  0  0  0  0
 20 22  2  0  0  0  0
 20 34  1  0  0  0  0
 21 23  2  0  0  0  0
 21 35  1  0  0  0  0
 22 23  1  0  0  0  0
 22 36  1  0  0  0  0
M  END
> <PUBCHEM_COMPOUND_CID>
9945282

> <PUBCHEM_CONFORMER_RMSD>
0.6

> <PUBCHEM_CONFORMER_DIVERSEORDER>
4
26
30
10
25
41
29
38
39
33
5
36
3
37
24
9
15
13
12
42
28
17
27
31
19
35
14
22
6
34
1
23
18
7
20
40
21
2
32
16
11
8

> <PUBCHEM_MMFF94_PARTIAL_CHARGES>
31
1 -0.18
10 0.24
11 -0.15
12 -0.15
13 0.18
14 0.49
15 -0.15
16 -0.15
17 0.09
18 0.66
19 -0.15
2 -0.57
20 -0.15
21 -0.15
22 -0.15
23 0.18
26 0.15
27 0.15
3 -0.65
31 0.15
32 0.15
33 0.15
34 0.15
35 0.15
36 0.15
37 0.5
4 -0.57
5 0.29
6 -0.18
8 -0.33
9 -0.15

> <PUBCHEM_EFFECTIVE_ROTOR_COUNT>
4

> <PUBCHEM_PHARMACOPHORE_FEATURES>
7
1 2 acceptor
1 3 acceptor
1 4 acceptor
3 3 4 18 anion
5 5 6 7 8 9 rings
6 17 19 20 21 22 23 rings
6 7 9 11 12 15 16 rings

> <PUBCHEM_HEAVY_ATOM_COUNT>
23

> <PUBCHEM_ATOM_DEF_STEREO_COUNT>
0

> <PUBCHEM_ATOM_UDEF_STEREO_COUNT>
0

> <PUBCHEM_BOND_DEF_STEREO_COUNT>
0

> <PUBCHEM_BOND_UDEF_STEREO_COUNT>
0

> <PUBCHEM_ISOTOPIC_ATOM_COUNT>
0

> <PUBCHEM_COMPONENT_COUNT>
1

> <PUBCHEM_CACTVS_TAUTO_COUNT>
1

> <PUBCHEM_CONFORMER_ID>
0097C0C200000004

> <PUBCHEM_MMFF94_ENERGY>
60.4588

> <PUBCHEM_FEATURE_SELFOVERLAP>
35.667

> <PUBCHEM_SHAPE_FINGERPRINT>
10366900 7 17560809844452452864
10693767 8 18059563656082352239
10967382 1 18411140208033722923
11578080 2 17534593157914581636
11646440 116 18202009845472632065
12011746 2 18410572868470503694
12236239 1 17748830726627435168
12346177 29 18199748201098395487
12555020 224 18411698789963206199
12592029 89 18260266339425600035
13140716 1 18268436917610703969
13583140 156 16950573189738489697
13862211 1 18412825793903289195
14115302 16 18334861653465960084
14790565 3 18339379486626233241
15042514 8 18337681930724400307
15099037 51 18409731772155928397
15927050 60 17478902584286800776
16752209 62 18410292475957875464
16945 1 18412271644295828425
17349148 13 18343581841267291173
17804303 29 18342183310101039880
19591789 44 18195815067838675930
200 152 16487257668337291428
20028762 73 17987242321109289919
20511986 3 18040989696659400260
20600515 1 18271824435537422816
20905425 154 17983584004940357806
21344244 246 18342735174739544303
21478907 32 17908706472974026979
21521239 73 17988347252853301295
21781051 124 18115891718293279339
21859007 373 17969479573049289212
22182313 1 18268170745750843507
23184049 29 17979638158414113074
2334 1 17907863151702011273
23402539 116 18201720622027200901
23559900 14 18271247231220224064
23566358 2 18196935461850471117
25147074 1 18053945057132496137
266924 87 18194396685038572901
2748010 2 18121793728916727537
283562 15 18271247101669858457
3004659 81 18187367632383460750
3084891 72 18412263934644896091
335352 9 18411140250830181255
340366 18 18113904913244348740
352729 6 18339939215221397595
3759504 43 17676770950340342131
404807 14 14902036594376450318
484989 97 18264770055439547819
5385378 56 18265621991945435259
559249 180 18260829306786016322
59755656 215 18339364067909463718
6138700 20 18340207397316810934
9709674 26 18055913436016755032

> <PUBCHEM_SHAPE_MULTIPOLES>
452.61
10.65
2.89
1.07
5.34
1.75
0.22
-0.67
2.81
-1.62
-0.36
0.25
-0.25
0.29

> <PUBCHEM_SHAPE_SELFOVERLAP>
987.678

> <PUBCHEM_SHAPE_VOLUME>
247.1

> <PUBCHEM_COORDINATE_TYPE>
2
5
10

$$$$