135
 OpenBabel03292022003D

 95 98  0  0  1  0  0  0  0  0999 V2000
    5.4631    9.3628    2.8785 C   0  0  0  0  0  0  0  0  0  0  0  0
    4.9412    8.2133    3.5491 O   0  0  0  0  0  0  0  0  0  0  0  0
    5.6614    7.0579    3.3795 C   0  0  0  0  0  0  0  0  0  0  0  0
    7.0658    7.1008    3.4080 C   0  0  0  0  0  0  0  0  0  0  0  0
    7.8353    5.9562    3.1912 C   0  0  0  0  0  0  0  0  0  0  0  0
    9.3301    6.0737    3.0233 C   0  0  0  0  0  0  0  0  0  0  0  0
   10.1790    5.3417    4.0617 C   0  0  0  0  0  0  0  0  0  0  0  0
   11.6577    5.4555    3.7445 C   0  0  0  0  0  0  0  0  0  0  0  0
   12.4704    4.5563    3.9475 O   0  0  0  0  0  0  0  0  0  0  0  0
   11.9630    6.6845    3.2628 O   0  0  0  0  0  0  0  0  0  0  0  0
   13.3109    6.9272    2.8033 C   0  0  1  0  0  0  0  0  0  0  0  0
   13.5239    6.2613    1.4372 C   0  0  0  0  0  0  0  0  0  0  0  0
   14.7678    6.7679    0.7123 C   0  0  0  0  0  0  0  0  0  0  0  0
   14.7908    8.3047    0.5414 C   0  0  1  0  0  0  0  0  0  0  0  0
   13.7531    8.8289   -0.4051 N   0  0  0  0  0  0  0  0  0  0  0  0
   13.9928    8.3576   -1.7747 C   0  0  0  0  0  0  0  0  0  0  0  0
   13.5920   10.3055   -0.3436 C   0  0  1  0  0  0  0  0  0  0  0  0
   14.8887   11.1143   -0.5191 C   0  0  0  0  0  0  0  0  0  0  0  0
   14.6560   12.5209    0.0268 C   0  0  0  0  0  0  0  0  0  0  0  0
   13.5761   13.2583   -0.7704 C   0  0  1  0  0  0  0  0  0  0  0  0
   14.1355   13.6139   -2.0494 O   0  0  0  0  0  0  0  0  0  0  0  0
   14.9639   14.6955   -2.0124 C   0  0  0  0  0  0  0  0  0  0  0  0
   15.1348   15.4424   -1.0621 O   0  0  0  0  0  0  0  0  0  0  0  0
   15.7145   14.8442   -3.2854 C   0  0  0  0  0  0  0  0  0  0  0  0
   15.7461   13.8322   -4.2410 C   0  0  0  0  0  0  0  0  0  0  0  0
   16.4919   13.9956   -5.4100 C   0  0  0  0  0  0  0  0  0  0  0  0
   16.5634   13.0474   -6.3995 O   0  0  0  0  0  0  0  0  0  0  0  0
   15.5293   12.0687   -6.4255 C   0  0  0  0  0  0  0  0  0  0  0  0
   17.2363   15.1839   -5.6144 C   0  0  0  0  0  0  0  0  0  0  0  0
   17.9969   15.2009   -6.7608 O   0  0  0  0  0  0  0  0  0  0  0  0
   18.1117   16.4536   -7.4286 C   0  0  0  0  0  0  0  0  0  0  0  0
   17.2331   16.1893   -4.6283 C   0  0  0  0  0  0  0  0  0  0  0  0
   17.9902   17.3126   -4.8413 O   0  0  0  0  0  0  0  0  0  0  0  0
   18.4251   18.0319   -3.6926 C   0  0  0  0  0  0  0  0  0  0  0  0
   16.4593   16.0206   -3.4811 C   0  0  0  0  0  0  0  0  0  0  0  0
   12.3044   12.4129   -0.9731 C   0  0  0  0  0  0  0  0  0  0  0  0
   12.5447   10.9280   -1.3021 C   0  0  0  0  0  0  0  0  0  0  0  0
   14.7180    8.8831    1.9811 C   0  0  0  0  0  0  0  0  0  0  0  0
   13.4659    8.4470    2.7320 C   0  0  0  0  0  0  0  0  0  0  0  0
    7.1702    4.7404    3.0294 C   0  0  0  0  0  0  0  0  0  0  0  0
    5.7649    4.6564    3.0561 C   0  0  0  0  0  0  0  0  0  0  0  0
    5.3409    3.3616    2.8760 O   0  0  0  0  0  0  0  0  0  0  0  0
    3.9563    3.0941    2.7225 C   0  0  0  0  0  0  0  0  0  0  0  0
    4.9883    5.8249    3.2296 C   0  0  0  0  0  0  0  0  0  0  0  0
    3.6298    5.6563    3.2678 O   0  0  0  0  0  0  0  0  0  0  0  0
    2.7713    6.7629    3.0376 C   0  0  0  0  0  0  0  0  0  0  0  0
    4.6199    9.9194    2.4613 H   0  0  0  0  0  0  0  0  0  0  0  0
    6.1365    9.1214    2.0510 H   0  0  0  0  0  0  0  0  0  0  0  0
    5.9721   10.0024    3.6077 H   0  0  0  0  0  0  0  0  0  0  0  0
    7.5726    8.0474    3.5803 H   0  0  0  0  0  0  0  0  0  0  0  0
    9.5959    7.1365    3.0275 H   0  0  0  0  0  0  0  0  0  0  0  0
    9.5859    5.7153    2.0162 H   0  0  0  0  0  0  0  0  0  0  0  0
    9.9236    4.2747    4.0718 H   0  0  0  0  0  0  0  0  0  0  0  0
   10.0066    5.7395    5.0692 H   0  0  0  0  0  0  0  0  0  0  0  0
   14.0301    6.5342    3.5345 H   0  0  0  0  0  0  0  0  0  0  0  0
   12.6367    6.4012    0.8086 H   0  0  0  0  0  0  0  0  0  0  0  0
   13.6175    5.1771    1.5789 H   0  0  0  0  0  0  0  0  0  0  0  0
   14.8755    6.2500   -0.2460 H   0  0  0  0  0  0  0  0  0  0  0  0
   15.6552    6.4731    1.2924 H   0  0  0  0  0  0  0  0  0  0  0  0
   15.7794    8.5575    0.1378 H   0  0  0  0  0  0  0  0  0  0  0  0
   13.9922    7.2656   -1.8334 H   0  0  0  0  0  0  0  0  0  0  0  0
   14.9434    8.7225   -2.1772 H   0  0  0  0  0  0  0  0  0  0  0  0
   13.1885    8.6636   -2.4513 H   0  0  0  0  0  0  0  0  0  0  0  0
   13.1821   10.5069    0.6539 H   0  0  0  0  0  0  0  0  0  0  0  0
   15.1837   11.1498   -1.5758 H   0  0  0  0  0  0  0  0  0  0  0  0
   15.7359   10.6867    0.0215 H   0  0  0  0  0  0  0  0  0  0  0  0
   15.6087   13.0598   -0.0039 H   0  0  0  0  0  0  0  0  0  0  0  0
   14.3573   12.4599    1.0794 H   0  0  0  0  0  0  0  0  0  0  0  0
   13.2792   14.1732   -0.2419 H   0  0  0  0  0  0  0  0  0  0  0  0
   15.2139   12.9055   -4.0511 H   0  0  0  0  0  0  0  0  0  0  0  0
   15.6089   11.5203   -7.3682 H   0  0  0  0  0  0  0  0  0  0  0  0
   14.5378   12.5324   -6.3930 H   0  0  0  0  0  0  0  0  0  0  0  0
   15.6560   11.3495   -5.6115 H   0  0  0  0  0  0  0  0  0  0  0  0
   18.3762   16.2457   -8.4696 H   0  0  0  0  0  0  0  0  0  0  0  0
   18.9260   17.0445   -7.0056 H   0  0  0  0  0  0  0  0  0  0  0  0
   17.1662   17.0080   -7.4297 H   0  0  0  0  0  0  0  0  0  0  0  0
   19.1529   18.7764   -4.0249 H   0  0  0  0  0  0  0  0  0  0  0  0
   18.9228   17.3700   -2.9754 H   0  0  0  0  0  0  0  0  0  0  0  0
   17.5949   18.5691   -3.2268 H   0  0  0  0  0  0  0  0  0  0  0  0
   16.4128   16.7835   -2.7129 H   0  0  0  0  0  0  0  0  0  0  0  0
   11.6869   12.8563   -1.7641 H   0  0  0  0  0  0  0  0  0  0  0  0
   11.7179   12.4568   -0.0463 H   0  0  0  0  0  0  0  0  0  0  0  0
   12.8740   10.8545   -2.3462 H   0  0  0  0  0  0  0  0  0  0  0  0
   11.5914   10.3909   -1.2255 H   0  0  0  0  0  0  0  0  0  0  0  0
   14.7869    9.9751    1.9932 H   0  0  0  0  0  0  0  0  0  0  0  0
   15.6020    8.5446    2.5390 H   0  0  0  0  0  0  0  0  0  0  0  0
   12.5715    8.8918    2.2743 H   0  0  0  0  0  0  0  0  0  0  0  0
   13.4944    8.8507    3.7529 H   0  0  0  0  0  0  0  0  0  0  0  0
    7.7409    3.8297    2.8510 H   0  0  0  0  0  0  0  0  0  0  0  0
    3.8502    2.0295    2.4921 H   0  0  0  0  0  0  0  0  0  0  0  0
    3.5283    3.6465    1.8797 H   0  0  0  0  0  0  0  0  0  0  0  0
    3.4130    3.2749    3.6555 H   0  0  0  0  0  0  0  0  0  0  0  0
    1.7640    6.3678    2.8696 H   0  0  0  0  0  0  0  0  0  0  0  0
    3.0523    7.3196    2.1376 H   0  0  0  0  0  0  0  0  0  0  0  0
    2.7155    7.4055    3.9210 H   0  0  0  0  0  0  0  0  0  0  0  0
  1  2  1  0  0  0  0
  1 47  1  0  0  0  0
  1 48  1  0  0  0  0
  1 49  1  0  0  0  0
  2  3  1  0  0  0  0
  3  4  1  0  0  0  0
  3 44  2  0  0  0  0
  4  5  2  0  0  0  0
  4 50  1  0  0  0  0
  5  6  1  0  0  0  0
  5 40  1  0  0  0  0
  6  7  1  0  0  0  0
  6 51  1  0  0  0  0
  6 52  1  0  0  0  0
  7  8  1  0  0  0  0
  7 53  1  0  0  0  0
  7 54  1  0  0  0  0
  8  9  2  0  0  0  0
  8 10  1  0  0  0  0
 11 12  1  0  0  0  0
 11 39  1  0  0  0  0
 11 10  1  0  0  0  0
 11 55  1  1  0  0  0
 12 13  1  0  0  0  0
 12 56  1  0  0  0  0
 12 57  1  0  0  0  0
 13 14  1  0  0  0  0
 13 58  1  0  0  0  0
 13 59  1  0  0  0  0
 14 15  1  0  0  0  0
 14 38  1  0  0  0  0
 14 60  1  6  0  0  0
 15 16  1  0  0  0  0
 16 61  1  0  0  0  0
 16 62  1  0  0  0  0
 16 63  1  0  0  0  0
 17 18  1  0  0  0  0
 17 37  1  0  0  0  0
 17 15  1  0  0  0  0
 17 64  1  1  0  0  0
 18 19  1  0  0  0  0
 18 65  1  0  0  0  0
 18 66  1  0  0  0  0
 19 20  1  0  0  0  0
 19 67  1  0  0  0  0
 19 68  1  0  0  0  0
 20 21  1  0  0  0  0
 20 36  1  0  0  0  0
 20 69  1  1  0  0  0
 21 22  1  0  0  0  0
 22 23  2  0  0  0  0
 22 24  1  0  0  0  0
 24 25  1  0  0  0  0
 24 35  2  0  0  0  0
 25 26  2  0  0  0  0
 25 70  1  0  0  0  0
 26 27  1  0  0  0  0
 26 29  1  0  0  0  0
 27 28  1  0  0  0  0
 28 71  1  0  0  0  0
 28 72  1  0  0  0  0
 28 73  1  0  0  0  0
 29 30  1  0  0  0  0
 29 32  2  0  0  0  0
 30 31  1  0  0  0  0
 31 74  1  0  0  0  0
 31 75  1  0  0  0  0
 31 76  1  0  0  0  0
 32 33  1  0  0  0  0
 32 35  1  0  0  0  0
 33 34  1  0  0  0  0
 34 77  1  0  0  0  0
 34 78  1  0  0  0  0
 34 79  1  0  0  0  0
 35 80  1  0  0  0  0
 36 37  1  0  0  0  0
 36 81  1  0  0  0  0
 36 82  1  0  0  0  0
 37 83  1  0  0  0  0
 37 84  1  0  0  0  0
 38 39  1  0  0  0  0
 38 85  1  0  0  0  0
 38 86  1  0  0  0  0
 39 87  1  0  0  0  0
 39 88  1  0  0  0  0
 40 41  2  0  0  0  0
 40 89  1  0  0  0  0
 41 42  1  0  0  0  0
 41 44  1  0  0  0  0
 42 43  1  0  0  0  0
 43 90  1  0  0  0  0
 43 91  1  0  0  0  0
 43 92  1  0  0  0  0
 44 45  1  0  0  0  0
 45 46  1  0  0  0  0
 46 93  1  0  0  0  0
 46 94  1  0  0  0  0
 46 95  1  0  0  0  0
M  END
>  <Energy>
140.305

$$$$