4
 OpenBabel03292021413D

 89 93  0  0  0  0  0  0  0  0999 V2000
    5.8748    0.6496   -6.9098 C   0  0  0  0  0  0  0  0  0  0  0  0
    6.9731    1.5446   -7.0191 O   0  0  0  0  0  0  0  0  0  0  0  0
    7.3084    2.2640   -5.9019 C   0  0  0  0  0  0  0  0  0  0  0  0
    6.4254    2.5380   -4.8526 C   0  0  0  0  0  0  0  0  0  0  0  0
    6.8444    3.3207   -3.7726 C   0  0  0  0  0  0  0  0  0  0  0  0
    8.1728    3.7673   -3.6849 C   0  0  0  0  0  0  0  0  0  0  0  0
    9.0577    3.4901   -4.7256 C   0  0  0  0  0  0  0  0  0  0  0  0
    8.6083    2.8000   -5.8530 C   0  0  0  0  0  0  0  0  0  0  0  0
    9.5325    2.6575   -6.8581 O   0  0  0  0  0  0  0  0  0  0  0  0
    9.0497    3.1352   -8.1149 C   0  0  0  0  0  0  0  0  0  0  0  0
    8.6066    4.4798   -2.4268 C   0  0  0  0  0  0  0  0  0  0  0  0
    7.6316    5.4546   -1.9034 N   0  0  0  0  0  0  0  0  0  0  0  0
    7.7055    5.5783   -0.4391 C   0  0  0  0  0  0  0  0  0  0  0  0
    9.0741    6.0508    0.0955 C   0  0  0  0  0  0  0  0  0  0  0  0
    9.4949    7.3998   -0.4364 C   0  0  0  0  0  0  0  0  0  0  0  0
    8.7093    8.5285   -0.1882 C   0  0  0  0  0  0  0  0  0  0  0  0
    9.0668    9.7751   -0.7039 C   0  0  0  0  0  0  0  0  0  0  0  0
   10.2275    9.9266   -1.4596 C   0  0  0  0  0  0  0  0  0  0  0  0
   10.6592   11.1657   -1.9815 N   0  0  0  0  0  0  0  0  0  0  0  0
   10.0712   12.3985   -1.7605 C   0  0  0  0  0  0  0  0  0  0  0  0
    9.0760   12.6421   -1.0886 O   0  0  0  0  0  0  0  0  0  0  0  0
   10.7680   13.5579   -2.3773 C   0  0  0  0  0  0  0  0  0  0  0  0
   11.3008   13.4852   -3.6628 C   0  0  0  0  0  0  0  0  0  0  0  0
   11.9142   14.6132   -4.1998 C   0  0  0  0  0  0  0  0  0  0  0  0
   11.9793   15.8277   -3.4783 C   0  0  0  0  0  0  0  0  0  0  0  0
   12.8235   16.8517   -4.1412 C   0  0  0  0  0  0  0  0  0  0  0  0
   13.9521   16.5839   -4.5255 O   0  0  0  0  0  0  0  0  0  0  0  0
   12.1993   17.9945   -4.4646 O   0  0  0  0  0  0  0  0  0  0  0  0
   11.4285   15.9091   -2.1762 C   0  0  0  0  0  0  0  0  0  0  0  0
   11.4261   17.0578   -1.3320 N   0  0  0  0  0  0  0  0  0  0  0  0
   10.8402   18.2480   -1.7394 C   0  0  0  0  0  0  0  0  0  0  0  0
   10.3939   18.3999   -2.8747 O   0  0  0  0  0  0  0  0  0  0  0  0
   10.6845   19.3546   -0.7297 C   0  0  0  0  0  0  0  0  0  0  0  0
   10.0475   20.5103   -1.1692 C   0  0  0  0  0  0  0  0  0  0  0  0
    9.8817   21.5593   -0.2818 C   0  0  0  0  0  0  0  0  0  0  0  0
   10.3336   21.4308    1.0280 C   0  0  0  0  0  0  0  0  0  0  0  0
   10.1400   22.4862    1.9337 C   0  0  0  0  0  0  0  0  0  0  0  0
   10.5468   22.3564    3.2565 C   0  0  0  0  0  0  0  0  0  0  0  0
   11.1655   21.1850    3.6623 C   0  0  0  0  0  0  0  0  0  0  0  0
   11.3787   20.1410    2.7440 C   0  0  0  0  0  0  0  0  0  0  0  0
   10.9634   20.2189    1.4127 C   0  0  0  0  0  0  0  0  0  0  0  0
   11.1428   19.1832    0.5423 N   0  0  0  0  0  0  0  0  0  0  0  0
   10.8355   14.7543   -1.6424 C   0  0  0  0  0  0  0  0  0  0  0  0
   11.0190    8.7991   -1.7102 C   0  0  0  0  0  0  0  0  0  0  0  0
   10.6586    7.5466   -1.2002 C   0  0  0  0  0  0  0  0  0  0  0  0
    6.2507    5.2450   -2.3697 C   0  0  0  0  0  0  0  0  0  0  0  0
    5.8995    3.7862   -2.6963 C   0  0  0  0  0  0  0  0  0  0  0  0
    0.4147   -1.0347    2.4415 O   0  0  0  0  0  0  0  0  0  0  0  0
    1.2113   -0.5691    1.6360 C   0  0  0  0  0  0  0  0  0  0  0  0
    0.8913    0.5234    0.8736 O   0  0  0  0  0  0  0  0  0  0  0  0
    2.6264   -1.0944    1.3677 C   0  0  0  0  0  0  0  0  0  0  0  0
    3.2070   -0.3852    0.3506 F   0  0  0  0  0  0  0  0  0  0  0  0
    3.4548   -0.9656    2.4373 F   0  0  0  0  0  0  0  0  0  0  0  0
    2.6558   -2.3984    0.9889 F   0  0  0  0  0  0  0  0  0  0  0  0
    5.7475    0.1644   -7.8823 H   0  0  0  0  0  0  0  0  0  0  0  0
    4.9395    1.1726   -6.6899 H   0  0  0  0  0  0  0  0  0  0  0  0
    6.0789   -0.1285   -6.1670 H   0  0  0  0  0  0  0  0  0  0  0  0
    5.3964    2.1994   -4.8744 H   0  0  0  0  0  0  0  0  0  0  0  0
   10.0846    3.8445   -4.6882 H   0  0  0  0  0  0  0  0  0  0  0  0
    9.8213    3.7777   -8.5499 H   0  0  0  0  0  0  0  0  0  0  0  0
    8.1302    3.7296   -8.0449 H   0  0  0  0  0  0  0  0  0  0  0  0
    8.8939    2.2846   -8.7848 H   0  0  0  0  0  0  0  0  0  0  0  0
    9.5553    4.9983   -2.6073 H   0  0  0  0  0  0  0  0  0  0  0  0
    8.8039    3.6914   -1.6870 H   0  0  0  0  0  0  0  0  0  0  0  0
    7.4475    4.6221    0.0341 H   0  0  0  0  0  0  0  0  0  0  0  0
    6.9478    6.2984   -0.1043 H   0  0  0  0  0  0  0  0  0  0  0  0
    9.8441    5.2994   -0.1174 H   0  0  0  0  0  0  0  0  0  0  0  0
    9.0222    6.1185    1.1900 H   0  0  0  0  0  0  0  0  0  0  0  0
    7.7975    8.4518    0.3982 H   0  0  0  0  0  0  0  0  0  0  0  0
    8.4030   10.6070   -0.4962 H   0  0  0  0  0  0  0  0  0  0  0  0
   11.5312   11.1438   -2.4935 H   0  0  0  0  0  0  0  0  0  0  0  0
   11.2354   12.5792   -4.2576 H   0  0  0  0  0  0  0  0  0  0  0  0
   12.3704   14.5468   -5.1898 H   0  0  0  0  0  0  0  0  0  0  0  0
   11.3005   18.0866   -4.0637 H   0  0  0  0  0  0  0  0  0  0  0  0
   11.3663   16.9154   -0.3253 H   0  0  0  0  0  0  0  0  0  0  0  0
    9.6742   20.5959   -2.1849 H   0  0  0  0  0  0  0  0  0  0  0  0
    9.3876   22.4674   -0.6200 H   0  0  0  0  0  0  0  0  0  0  0  0
    9.6621   23.4108    1.6163 H   0  0  0  0  0  0  0  0  0  0  0  0
   10.3754   23.1712    3.9611 H   0  0  0  0  0  0  0  0  0  0  0  0
   11.4812   21.0762    4.6985 H   0  0  0  0  0  0  0  0  0  0  0  0
   11.8767   19.2389    3.0908 H   0  0  0  0  0  0  0  0  0  0  0  0
   10.3739   14.7832   -0.6575 H   0  0  0  0  0  0  0  0  0  0  0  0
   11.9257    8.8735   -2.3049 H   0  0  0  0  0  0  0  0  0  0  0  0
   11.2875    6.6857   -1.4157 H   0  0  0  0  0  0  0  0  0  0  0  0
    6.1334    5.8444   -3.2848 H   0  0  0  0  0  0  0  0  0  0  0  0
    5.5169    5.6584   -1.6674 H   0  0  0  0  0  0  0  0  0  0  0  0
    4.8632    3.7379   -3.0487 H   0  0  0  0  0  0  0  0  0  0  0  0
    5.9910    3.1484   -1.8094 H   0  0  0  0  0  0  0  0  0  0  0  0
    1.6232    0.7834    0.2711 H   0  0  0  0  0  0  0  0  0  0  0  0
  1  2  1  0  0  0  0
  1 55  1  0  0  0  0
  1 56  1  0  0  0  0
  1 57  1  0  0  0  0
  2  3  1  0  0  0  0
  3  4  1  0  0  0  0
  3  8  2  0  0  0  0
  4  5  2  0  0  0  0
  4 58  1  0  0  0  0
  5  6  1  0  0  0  0
  5 47  1  0  0  0  0
  6  7  2  0  0  0  0
  6 11  1  0  0  0  0
  7  8  1  0  0  0  0
  7 59  1  0  0  0  0
  8  9  1  0  0  0  0
  9 10  1  0  0  0  0
 10 60  1  0  0  0  0
 10 61  1  0  0  0  0
 10 62  1  0  0  0  0
 11 12  1  0  0  0  0
 11 63  1  0  0  0  0
 11 64  1  0  0  0  0
 12 13  1  0  0  0  0
 12 46  1  0  0  0  0
 13 14  1  0  0  0  0
 13 65  1  0  0  0  0
 13 66  1  0  0  0  0
 14 15  1  0  0  0  0
 14 67  1  0  0  0  0
 14 68  1  0  0  0  0
 15 16  1  0  0  0  0
 15 45  2  0  0  0  0
 16 17  2  0  0  0  0
 16 69  1  0  0  0  0
 17 18  1  0  0  0  0
 17 70  1  0  0  0  0
 18 19  1  0  0  0  0
 18 44  2  0  0  0  0
 19 20  1  0  0  0  0
 19 71  1  0  0  0  0
 20 21  2  0  0  0  0
 20 22  1  0  0  0  0
 22 23  1  0  0  0  0
 22 43  2  0  0  0  0
 23 24  2  0  0  0  0
 23 72  1  0  0  0  0
 24 25  1  0  0  0  0
 24 73  1  0  0  0  0
 25 26  1  0  0  0  0
 25 29  2  0  0  0  0
 26 27  2  0  0  0  0
 26 28  1  0  0  0  0
 28 74  1  0  0  0  0
 29 30  1  0  0  0  0
 29 43  1  0  0  0  0
 30 31  1  0  0  0  0
 30 75  1  0  0  0  0
 31 32  2  0  0  0  0
 31 33  1  0  0  0  0
 33 34  1  0  0  0  0
 33 42  2  0  0  0  0
 34 35  2  0  0  0  0
 34 76  1  0  0  0  0
 35 36  1  0  0  0  0
 35 77  1  0  0  0  0
 36 37  1  0  0  0  0
 36 41  2  0  0  0  0
 37 38  2  0  0  0  0
 37 78  1  0  0  0  0
 38 39  1  0  0  0  0
 38 79  1  0  0  0  0
 39 40  2  0  0  0  0
 39 80  1  0  0  0  0
 40 41  1  0  0  0  0
 40 81  1  0  0  0  0
 41 42  1  0  0  0  0
 43 82  1  0  0  0  0
 44 45  1  0  0  0  0
 44 83  1  0  0  0  0
 45 84  1  0  0  0  0
 46 47  1  0  0  0  0
 46 85  1  0  0  0  0
 46 86  1  0  0  0  0
 47 87  1  0  0  0  0
 47 88  1  0  0  0  0
 48 49  2  0  0  0  0
 49 50  1  0  0  0  0
 49 51  1  0  0  0  0
 50 89  1  0  0  0  0
 51 52  1  0  0  0  0
 51 53  1  0  0  0  0
 51 54  1  0  0  0  0
M  END
>  <Energy>
258.884

$$$$