89568925
  -OEChem-03242010103D

 46 48  0     0  0  0  0  0  0999 V2000
    5.8917   -1.8835    0.0647 O   0  0  0  0  0  0  0  0  0  0  0  0
   -6.1016    1.2812   -0.4997 O   0  0  0  0  0  0  0  0  0  0  0  0
   -6.2951   -1.4592   -0.9250 O   0  0  0  0  0  0  0  0  0  0  0  0
   -1.5285    1.7983    1.6824 O   0  0  0  0  0  0  0  0  0  0  0  0
    3.2536    0.7019    0.0521 C   0  0  0  0  0  0  0  0  0  0  0  0
    4.4952    0.0699   -0.1968 C   0  0  0  0  0  0  0  0  0  0  0  0
    2.2636    0.0118    0.7703 C   0  0  0  0  0  0  0  0  0  0  0  0
    4.7101   -1.2335    0.2799 C   0  0  0  0  0  0  0  0  0  0  0  0
    2.4943   -1.2828    1.2364 C   0  0  0  0  0  0  0  0  0  0  0  0
    3.0387    2.0053   -0.4246 C   0  0  0  0  0  0  0  0  0  0  0  0
    5.4854    0.7599   -0.9150 C   0  0  0  0  0  0  0  0  0  0  0  0
    3.7153   -1.9043    0.9918 C   0  0  0  0  0  0  0  0  0  0  0  0
    0.9547    0.5874    1.0718 C   0  0  0  0  0  0  0  0  0  0  0  0
    4.0336    2.6760   -1.1364 C   0  0  0  0  0  0  0  0  0  0  0  0
    5.2546    2.0545   -1.3812 C   0  0  0  0  0  0  0  0  0  0  0  0
   -2.7615    0.1867    0.5048 C   0  0  0  0  0  0  0  0  0  0  0  0
   -0.2253    0.0818    0.6600 C   0  0  0  0  0  0  0  0  0  0  0  0
   -1.4976    0.7700    1.0156 C   0  0  0  0  0  0  0  0  0  0  0  0
   -3.8533    1.0128    0.2380 C   0  0  0  0  0  0  0  0  0  0  0  0
   -5.0424    0.4639   -0.2423 C   0  0  0  0  0  0  0  0  0  0  0  0
   -2.8588   -1.1883    0.2914 C   0  0  0  0  0  0  0  0  0  0  0  0
   -5.1397   -0.9111   -0.4557 C   0  0  0  0  0  0  0  0  0  0  0  0
   -4.0479   -1.7372   -0.1887 C   0  0  0  0  0  0  0  0  0  0  0  0
    5.9912   -2.6635   -1.1236 C   0  0  0  0  0  0  0  0  0  0  0  0
   -5.9192    2.6745   -0.2548 C   0  0  0  0  0  0  0  0  0  0  0  0
   -6.3111   -2.8727   -1.1154 C   0  0  0  0  0  0  0  0  0  0  0  0
    1.7379   -1.8260    1.7988 H   0  0  0  0  0  0  0  0  0  0  0  0
    2.1008    2.5303   -0.2608 H   0  0  0  0  0  0  0  0  0  0  0  0
    6.4535    0.3089   -1.1200 H   0  0  0  0  0  0  0  0  0  0  0  0
    3.8873   -2.9120    1.3605 H   0  0  0  0  0  0  0  0  0  0  0  0
    0.9843    1.4906    1.6772 H   0  0  0  0  0  0  0  0  0  0  0  0
    3.8549    3.6838   -1.5002 H   0  0  0  0  0  0  0  0  0  0  0  0
    6.0290    2.5778   -1.9344 H   0  0  0  0  0  0  0  0  0  0  0  0
   -0.2429   -0.7975    0.0269 H   0  0  0  0  0  0  0  0  0  0  0  0
   -3.7230    2.0750    0.4149 H   0  0  0  0  0  0  0  0  0  0  0  0
   -2.0458   -1.8707    0.5204 H   0  0  0  0  0  0  0  0  0  0  0  0
   -4.0540   -2.8134   -0.3230 H   0  0  0  0  0  0  0  0  0  0  0  0
    7.0102   -3.0539   -1.1926 H   0  0  0  0  0  0  0  0  0  0  0  0
    5.7891   -2.0574   -2.0123 H   0  0  0  0  0  0  0  0  0  0  0  0
    5.2963   -3.5083   -1.0826 H   0  0  0  0  0  0  0  0  0  0  0  0
   -6.8604    3.1719   -0.5115 H   0  0  0  0  0  0  0  0  0  0  0  0
   -5.1480    3.1015   -0.9049 H   0  0  0  0  0  0  0  0  0  0  0  0
   -5.7327    2.8777    0.8053 H   0  0  0  0  0  0  0  0  0  0  0  0
   -7.3046   -3.1355   -1.4935 H   0  0  0  0  0  0  0  0  0  0  0  0
   -6.1793   -3.4088   -0.1694 H   0  0  0  0  0  0  0  0  0  0  0  0
   -5.5885   -3.1859   -1.8767 H   0  0  0  0  0  0  0  0  0  0  0  0
  1  8  1  0  0  0  0
  1 24  1  0  0  0  0
  2 20  1  0  0  0  0
  2 25  1  0  0  0  0
  3 22  1  0  0  0  0
  3 26  1  0  0  0  0
  4 18  2  0  0  0  0
  5  6  1  0  0  0  0
  5  7  1  0  0  0  0
  5 10  2  0  0  0  0
  6  8  1  0  0  0  0
  6 11  2  0  0  0  0
  7  9  2  0  0  0  0
  7 13  1  0  0  0  0
  8 12  2  0  0  0  0
  9 12  1  0  0  0  0
  9 27  1  0  0  0  0
 10 14  1  0  0  0  0
 10 28  1  0  0  0  0
 11 15  1  0  0  0  0
 11 29  1  0  0  0  0
 12 30  1  0  0  0  0
 13 17  2  0  0  0  0
 13 31  1  0  0  0  0
 14 15  2  0  0  0  0
 14 32  1  0  0  0  0
 15 33  1  0  0  0  0
 16 18  1  0  0  0  0
 16 19  2  0  0  0  0
 16 21  1  0  0  0  0
 17 18  1  0  0  0  0
 17 34  1  0  0  0  0
 19 20  1  0  0  0  0
 19 35  1  0  0  0  0
 20 22  2  0  0  0  0
 21 23  2  0  0  0  0
 21 36  1  0  0  0  0
 22 23  1  0  0  0  0
 23 37  1  0  0  0  0
 24 38  1  0  0  0  0
 24 39  1  0  0  0  0
 24 40  1  0  0  0  0
 25 41  1  0  0  0  0
 25 42  1  0  0  0  0
 25 43  1  0  0  0  0
 26 44  1  0  0  0  0
 26 45  1  0  0  0  0
 26 46  1  0  0  0  0
M  END
> <PUBCHEM_COMPOUND_CID>
89568925

> <PUBCHEM_CONFORMER_RMSD>
0.8

> <PUBCHEM_CONFORMER_DIVERSEORDER>
2
65
79
64
24
32
66
86
68
27
33
6
30
53
80
16
57
29
9
46
22
72
4
63
75
25
82
62
3
35
74
17
59
87
40
14
60
47
43
70
13
49
52
76
69
12
18
48
83
23
19
31
37
81
11
56
42
15
89
41
88
77
8
44
34
54
39
26
10
67
50
1
7
21
36
71
61
45
28
20
78
51
90
85
55
58
5
73
38
84

> <PUBCHEM_MMFF94_PARTIAL_CHARGES>
35
1 -0.36
10 -0.15
11 -0.15
12 -0.15
13 -0.18
14 -0.15
15 -0.15
16 0.09
17 -0.14
18 0.47
19 -0.15
2 -0.36
20 0.08
21 -0.15
22 0.08
23 -0.15
24 0.28
25 0.28
26 0.28
27 0.15
28 0.15
29 0.15
3 -0.36
30 0.15
31 0.15
32 0.15
33 0.15
34 0.15
35 0.15
36 0.15
37 0.15
4 -0.57
7 0.03
8 0.08
9 -0.15

> <PUBCHEM_EFFECTIVE_ROTOR_COUNT>
6

> <PUBCHEM_PHARMACOPHORE_FEATURES>
7
1 1 acceptor
1 2 acceptor
1 3 acceptor
1 4 acceptor
6 16 19 20 21 22 23 rings
6 5 6 10 11 14 15 rings
6 5 6 7 8 9 12 rings

> <PUBCHEM_HEAVY_ATOM_COUNT>
26

> <PUBCHEM_ATOM_DEF_STEREO_COUNT>
0

> <PUBCHEM_ATOM_UDEF_STEREO_COUNT>
0

> <PUBCHEM_BOND_DEF_STEREO_COUNT>
1

> <PUBCHEM_BOND_UDEF_STEREO_COUNT>
0

> <PUBCHEM_ISOTOPIC_ATOM_COUNT>
0

> <PUBCHEM_COMPONENT_COUNT>
1

> <PUBCHEM_CACTVS_TAUTO_COUNT>
1

> <PUBCHEM_CONFORMER_ID>
0556B69D00000002

> <PUBCHEM_MMFF94_ENERGY>
115.5054

> <PUBCHEM_FEATURE_SELFOVERLAP>
35.554

> <PUBCHEM_SHAPE_FINGERPRINT>
10 15 11025804180468624525
10595046 47 18335419105903329965
10693767 8 18338805495124108278
11524674 6 16056882485878877543
11796584 16 18201717310665314563
12236239 1 18411418410081589609
12788726 201 18059300868255021817
13690498 29 18198901603906510935
13782708 43 15195289702836696788
14528608 73 18260548960857832860
14681490 219 18113898260372305236
15064986 266 18187939395499263811
15082195 135 18116716403084168212
15183329 4 18261387815563333701
15475509 35 14763801724315809596
17844677 252 18261398853618864889
1813 80 14908185256930827936
18222031 100 16343984714837686680
18681886 176 18342170068996740250
20028762 73 18341612569520938534
20511986 3 18410844482271153880
20612939 158 18259993656568632336
21033648 29 16226061015159697704
21223535 225 17095794417787345021
221357 26 18040998389309509532
23198884 109 18040433300699238179
23522609 53 17984732088807673553
23559900 14 18201708566201571417
29717793 49 18341052922106320930
3004659 81 18410569561567498610
338550 245 18131630076146236894
4073 2 17676776469135681066
439807 62 18342175609546983535
44317340 157 18410862100396184185
465052 167 17703508882330419415
497634 4 18260823830986946797
6327066 14 17535478346753983380
960060 61 18408604785854611512

> <PUBCHEM_SHAPE_MULTIPOLES>
511.59
18.92
3.05
1.25
11.56
0.15
0.05
4.2
-8.04
-0.36
-1.02
-0.52
0
-2.18

> <PUBCHEM_SHAPE_SELFOVERLAP>
1113.706

> <PUBCHEM_SHAPE_VOLUME>
279.6

> <PUBCHEM_COORDINATE_TYPE>
2
5
10

$$$$