5850257
  -OEChem-03242010103D

 43 44  0     0  0  0  0  0  0999 V2000
    5.4635    1.2559   -0.6150 O   0  0  0  0  0  0  0  0  0  0  0  0
    3.1812    2.6979    0.0036 O   0  0  0  0  0  0  0  0  0  0  0  0
    5.3876   -1.5130   -0.5787 O   0  0  0  0  0  0  0  0  0  0  0  0
    0.7645   -2.5247    1.2238 O   0  0  0  0  0  0  0  0  0  0  0  0
   -6.8736    2.1496   -0.6843 O   0  0  0  0  0  0  0  0  0  0  0  0
   -7.9454    0.1468   -0.6034 O   0  0  0  0  0  0  0  0  0  0  0  0
    1.9687   -0.7091    0.3534 C   0  0  0  0  0  0  0  0  0  0  0  0
    4.3085    0.6059   -0.2946 C   0  0  0  0  0  0  0  0  0  0  0  0
    3.1613    1.3358    0.0163 C   0  0  0  0  0  0  0  0  0  0  0  0
    4.2738   -0.7884   -0.2781 C   0  0  0  0  0  0  0  0  0  0  0  0
    1.9793    0.6715    0.3437 C   0  0  0  0  0  0  0  0  0  0  0  0
    3.0919   -1.4528    0.0492 C   0  0  0  0  0  0  0  0  0  0  0  0
    0.7131   -1.4158    0.7034 C   0  0  0  0  0  0  0  0  0  0  0  0
   -3.0653   -0.8039    0.3437 C   0  0  0  0  0  0  0  0  0  0  0  0
   -0.5741   -0.7440    0.3710 C   0  0  0  0  0  0  0  0  0  0  0  0
   -1.7509   -1.3534    0.6383 C   0  0  0  0  0  0  0  0  0  0  0  0
   -3.2177    0.5672    0.1379 C   0  0  0  0  0  0  0  0  0  0  0  0
   -4.1731   -1.6481    0.2679 C   0  0  0  0  0  0  0  0  0  0  0  0
   -5.5861    0.2500   -0.2196 C   0  0  0  0  0  0  0  0  0  0  0  0
   -4.4783    1.0941   -0.1438 C   0  0  0  0  0  0  0  0  0  0  0  0
   -5.4336   -1.1211   -0.0138 C   0  0  0  0  0  0  0  0  0  0  0  0
    6.5955    1.0116    0.2166 C   0  0  0  0  0  0  0  0  0  0  0  0
    3.5267    3.3525    1.2228 C   0  0  0  0  0  0  0  0  0  0  0  0
    5.5826   -1.8638   -1.9473 C   0  0  0  0  0  0  0  0  0  0  0  0
   -6.9003    0.7994   -0.5130 C   0  0  0  0  0  0  0  0  0  0  0  0
    1.1171    1.2707    0.6185 H   0  0  0  0  0  0  0  0  0  0  0  0
    3.0725   -2.5392    0.0561 H   0  0  0  0  0  0  0  0  0  0  0  0
   -0.5446    0.2002   -0.1565 H   0  0  0  0  0  0  0  0  0  0  0  0
   -1.7514   -2.3300    1.1175 H   0  0  0  0  0  0  0  0  0  0  0  0
   -2.3886    1.2653    0.2084 H   0  0  0  0  0  0  0  0  0  0  0  0
   -4.0734   -2.7196    0.4242 H   0  0  0  0  0  0  0  0  0  0  0  0
   -4.5533    2.1676   -0.2925 H   0  0  0  0  0  0  0  0  0  0  0  0
   -6.2841   -1.7956   -0.0689 H   0  0  0  0  0  0  0  0  0  0  0  0
    6.3084    0.7232    1.2339 H   0  0  0  0  0  0  0  0  0  0  0  0
    7.1748    1.9377    0.2765 H   0  0  0  0  0  0  0  0  0  0  0  0
    7.2317    0.2437   -0.2319 H   0  0  0  0  0  0  0  0  0  0  0  0
    3.5061    4.4319    1.0497 H   0  0  0  0  0  0  0  0  0  0  0  0
    2.8022    3.1098    2.0066 H   0  0  0  0  0  0  0  0  0  0  0  0
    4.5344    3.0689    1.5421 H   0  0  0  0  0  0  0  0  0  0  0  0
    5.6593   -0.9661   -2.5689 H   0  0  0  0  0  0  0  0  0  0  0  0
    4.7628   -2.4970   -2.3009 H   0  0  0  0  0  0  0  0  0  0  0  0
    6.5177   -2.4249   -2.0270 H   0  0  0  0  0  0  0  0  0  0  0  0
   -7.7644    2.5102   -0.8810 H   0  0  0  0  0  0  0  0  0  0  0  0
  1  8  1  0  0  0  0
  1 22  1  0  0  0  0
  2  9  1  0  0  0  0
  2 23  1  0  0  0  0
  3 10  1  0  0  0  0
  3 24  1  0  0  0  0
  4 13  2  0  0  0  0
  5 25  1  0  0  0  0
  5 43  1  0  0  0  0
  6 25  2  0  0  0  0
  7 11  2  0  0  0  0
  7 12  1  0  0  0  0
  7 13  1  0  0  0  0
  8  9  2  0  0  0  0
  8 10  1  0  0  0  0
  9 11  1  0  0  0  0
 10 12  2  0  0  0  0
 11 26  1  0  0  0  0
 12 27  1  0  0  0  0
 13 15  1  0  0  0  0
 14 16  1  0  0  0  0
 14 17  2  0  0  0  0
 14 18  1  0  0  0  0
 15 16  2  0  0  0  0
 15 28  1  0  0  0  0
 16 29  1  0  0  0  0
 17 20  1  0  0  0  0
 17 30  1  0  0  0  0
 18 21  2  0  0  0  0
 18 31  1  0  0  0  0
 19 20  2  0  0  0  0
 19 21  1  0  0  0  0
 19 25  1  0  0  0  0
 20 32  1  0  0  0  0
 21 33  1  0  0  0  0
 22 34  1  0  0  0  0
 22 35  1  0  0  0  0
 22 36  1  0  0  0  0
 23 37  1  0  0  0  0
 23 38  1  0  0  0  0
 23 39  1  0  0  0  0
 24 40  1  0  0  0  0
 24 41  1  0  0  0  0
 24 42  1  0  0  0  0
M  END
> <PUBCHEM_COMPOUND_CID>
5850257

> <PUBCHEM_CONFORMER_RMSD>
0.8

> <PUBCHEM_CONFORMER_DIVERSEORDER>
1
7
16
8
2
13
19
18
10
4
15
9
11
14
12
6
17
5
20
3

> <PUBCHEM_MMFF94_PARTIAL_CHARGES>
34
1 -0.36
10 0.08
11 -0.15
12 -0.15
13 0.47
14 0.03
15 -0.14
16 -0.18
17 -0.15
18 -0.15
19 0.09
2 -0.36
20 -0.15
21 -0.15
22 0.28
23 0.28
24 0.28
25 0.63
26 0.15
27 0.15
28 0.15
29 0.15
3 -0.36
30 0.15
31 0.15
32 0.15
33 0.15
4 -0.57
43 0.5
5 -0.65
6 -0.57
7 0.09
8 0.08
9 0.08

> <PUBCHEM_EFFECTIVE_ROTOR_COUNT>
7

> <PUBCHEM_PHARMACOPHORE_FEATURES>
9
1 1 acceptor
1 2 acceptor
1 3 acceptor
1 4 acceptor
1 5 acceptor
1 6 acceptor
3 5 6 25 anion
6 14 17 18 19 20 21 rings
6 7 8 9 10 11 12 rings

> <PUBCHEM_HEAVY_ATOM_COUNT>
25

> <PUBCHEM_ATOM_DEF_STEREO_COUNT>
0

> <PUBCHEM_ATOM_UDEF_STEREO_COUNT>
0

> <PUBCHEM_BOND_DEF_STEREO_COUNT>
1

> <PUBCHEM_BOND_UDEF_STEREO_COUNT>
0

> <PUBCHEM_ISOTOPIC_ATOM_COUNT>
0

> <PUBCHEM_COMPONENT_COUNT>
1

> <PUBCHEM_CACTVS_TAUTO_COUNT>
1

> <PUBCHEM_CONFORMER_ID>
0059449100000001

> <PUBCHEM_MMFF94_ENERGY>
110.3538

> <PUBCHEM_FEATURE_SELFOVERLAP>
45.742

> <PUBCHEM_SHAPE_FINGERPRINT>
10378564 45 18413673504483383142
10411042 1 17831011335345112810
10693767 8 18057326085443090534
10763959 59 18335142015713981124
12730499 353 18260555510709768779
12892183 10 10737276961356984171
13402501 40 18333449850260218964
14170010 4 18272931640020675800
14211702 104 10735585952088188405
14251757 52 16443357489587908774
14528608 73 18408880750768115347
14556957 393 16773529840477481289
14863182 85 10015580627972705992
14931854 50 18342187669604108612
14933364 13 18335423469859030567
15003188 100 18409448119810354565
15064981 194 18264788695681391377
15183329 4 18340210695714414290
16988056 13 18340490071012085356
17859628 70 10809603923565632408
18335252 114 18341607092772127669
20157964 124 18343586243914750726
20281389 69 17676202438551594991
21033648 29 18114742758273968616
21049683 118 17750497632967217091
21150785 3 16056878052744198144
21279426 13 18410293601539811717
221357 26 18413109433374971724
22224240 67 8430018834098028750
22289505 5 18413113879372842460
22393880 68 18408038533134857531
23081809 10 16343431626087095683
23559900 14 18341326781948059465
2747138 104 17678754547280662579
2838139 119 18411130364395909317
29717793 49 17917997148242825278
3004659 81 18410291393536101753
335352 9 18408043996976784238
34797466 226 18202568393427504951
3545911 37 18187083936798083059
4073 2 17894918472137841810
4340502 62 10881687927272579830
44317340 157 17916864746288045209
465052 167 9295297136185165528
495365 180 17916584401241226480
5104073 3 18040149622299031483
53794403 172 17970071255896044941
54076057 255 16371021710470700796
59682541 52 18201730518111828070
59755656 215 18261676982573647327
633830 44 18335693992078799447

> <PUBCHEM_SHAPE_MULTIPOLES>
479.27
19.89
2.68
1
21
1.4
0.16
5.47
6.56
-2.78
-0.42
-0.85
-0.26
2.14

> <PUBCHEM_SHAPE_SELFOVERLAP>
1024.29

> <PUBCHEM_SHAPE_VOLUME>
266.7

> <PUBCHEM_COORDINATE_TYPE>
2
5
10

$$$$