90655519
  -OEChem-03242010103D

 52 54  0     0  0  0  0  0  0999 V2000
   -3.2005    2.6832    0.1165 O   0  0  0  0  0  0  0  0  0  0  0  0
   -7.9837   -1.4769    0.0481 O   0  0  0  0  0  0  0  0  0  0  0  0
    6.5260    1.7593    0.0106 O   0  0  0  0  0  0  0  0  0  0  0  0
    4.5761   -2.6129    0.1380 O   0  0  0  0  0  0  0  0  0  0  0  0
    6.8183   -0.9950   -0.0161 O   0  0  0  0  0  0  0  0  0  0  0  0
   -3.0826   -1.4683    0.1320 C   0  0  0  0  0  0  0  0  0  0  0  0
   -1.9823   -0.7201   -0.6117 C   0  0  0  0  0  0  0  0  0  0  0  0
   -4.3918   -0.7303    0.0440 C   0  0  0  0  0  0  0  0  0  0  0  0
   -4.4291    0.6728   -0.0122 C   0  0  0  0  0  0  0  0  0  0  0  0
   -1.8970    0.7009   -0.1445 C   0  0  0  0  0  0  0  0  0  0  0  0
   -3.1717    1.4641   -0.0011 C   0  0  0  0  0  0  0  0  0  0  0  0
   -5.5976   -1.4439    0.0744 C   0  0  0  0  0  0  0  0  0  0  0  0
   -5.6572    1.3439   -0.0571 C   0  0  0  0  0  0  0  0  0  0  0  0
   -0.7436    1.3156    0.1498 C   0  0  0  0  0  0  0  0  0  0  0  0
   -6.8193   -0.7724    0.0256 C   0  0  0  0  0  0  0  0  0  0  0  0
   -6.8485    0.6187   -0.0423 C   0  0  0  0  0  0  0  0  0  0  0  0
    0.5464    0.6731    0.0470 C   0  0  0  0  0  0  0  0  0  0  0  0
    1.6946    1.3013    0.3454 C   0  0  0  0  0  0  0  0  0  0  0  0
    3.0362    0.7000    0.2517 C   0  0  0  0  0  0  0  0  0  0  0  0
    3.1795   -0.6875    0.2389 C   0  0  0  0  0  0  0  0  0  0  0  0
    4.1632    1.5181    0.1748 C   0  0  0  0  0  0  0  0  0  0  0  0
    5.4336    0.9491    0.0851 C   0  0  0  0  0  0  0  0  0  0  0  0
    4.4498   -1.2567    0.1491 C   0  0  0  0  0  0  0  0  0  0  0  0
    5.5768   -0.4384    0.0722 C   0  0  0  0  0  0  0  0  0  0  0  0
   -9.1969   -0.7274   -0.0007 C   0  0  0  0  0  0  0  0  0  0  0  0
    6.9571    2.1475   -1.2925 C   0  0  0  0  0  0  0  0  0  0  0  0
    4.5480   -3.2559   -1.1349 C   0  0  0  0  0  0  0  0  0  0  0  0
    7.4961   -1.2617    1.2098 C   0  0  0  0  0  0  0  0  0  0  0  0
   -2.8179   -1.5919    1.1896 H   0  0  0  0  0  0  0  0  0  0  0  0
   -3.1840   -2.4695   -0.3041 H   0  0  0  0  0  0  0  0  0  0  0  0
   -2.2028   -0.7152   -1.6878 H   0  0  0  0  0  0  0  0  0  0  0  0
   -1.0723   -1.3077   -0.4862 H   0  0  0  0  0  0  0  0  0  0  0  0
   -5.5858   -2.5298    0.1360 H   0  0  0  0  0  0  0  0  0  0  0  0
   -5.7054    2.4287   -0.1032 H   0  0  0  0  0  0  0  0  0  0  0  0
   -0.7425    2.3480    0.4917 H   0  0  0  0  0  0  0  0  0  0  0  0
   -7.7621    1.2022   -0.0814 H   0  0  0  0  0  0  0  0  0  0  0  0
    0.5928   -0.3376   -0.3311 H   0  0  0  0  0  0  0  0  0  0  0  0
    1.6703    2.3348    0.6858 H   0  0  0  0  0  0  0  0  0  0  0  0
    2.3299   -1.3594    0.3215 H   0  0  0  0  0  0  0  0  0  0  0  0
    4.0627    2.6014    0.1834 H   0  0  0  0  0  0  0  0  0  0  0  0
   -9.3068   -0.0820    0.8774 H   0  0  0  0  0  0  0  0  0  0  0  0
   -9.2887   -0.1708   -0.9395 H   0  0  0  0  0  0  0  0  0  0  0  0
  -10.0222   -1.4465    0.0263 H   0  0  0  0  0  0  0  0  0  0  0  0
    7.8405    2.7829   -1.1858 H   0  0  0  0  0  0  0  0  0  0  0  0
    6.1740    2.7189   -1.8008 H   0  0  0  0  0  0  0  0  0  0  0  0
    7.2276    1.2690   -1.8868 H   0  0  0  0  0  0  0  0  0  0  0  0
    4.6681   -4.3313   -0.9781 H   0  0  0  0  0  0  0  0  0  0  0  0
    5.3695   -2.9002   -1.7648 H   0  0  0  0  0  0  0  0  0  0  0  0
    3.5891   -3.0793   -1.6323 H   0  0  0  0  0  0  0  0  0  0  0  0
    8.4685   -1.7025    0.9742 H   0  0  0  0  0  0  0  0  0  0  0  0
    6.9279   -1.9730    1.8175 H   0  0  0  0  0  0  0  0  0  0  0  0
    7.6586   -0.3354    1.7697 H   0  0  0  0  0  0  0  0  0  0  0  0
  1 11  2  0  0  0  0
  2 15  1  0  0  0  0
  2 25  1  0  0  0  0
  3 22  1  0  0  0  0
  3 26  1  0  0  0  0
  4 23  1  0  0  0  0
  4 27  1  0  0  0  0
  5 24  1  0  0  0  0
  5 28  1  0  0  0  0
  6  7  1  0  0  0  0
  6  8  1  0  0  0  0
  6 29  1  0  0  0  0
  6 30  1  0  0  0  0
  7 10  1  0  0  0  0
  7 31  1  0  0  0  0
  7 32  1  0  0  0  0
  8  9  2  0  0  0  0
  8 12  1  0  0  0  0
  9 11  1  0  0  0  0
  9 13  1  0  0  0  0
 10 11  1  0  0  0  0
 10 14  2  0  0  0  0
 12 15  2  0  0  0  0
 12 33  1  0  0  0  0
 13 16  2  0  0  0  0
 13 34  1  0  0  0  0
 14 17  1  0  0  0  0
 14 35  1  0  0  0  0
 15 16  1  0  0  0  0
 16 36  1  0  0  0  0
 17 18  2  0  0  0  0
 17 37  1  0  0  0  0
 18 19  1  0  0  0  0
 18 38  1  0  0  0  0
 19 20  2  0  0  0  0
 19 21  1  0  0  0  0
 20 23  1  0  0  0  0
 20 39  1  0  0  0  0
 21 22  2  0  0  0  0
 21 40  1  0  0  0  0
 22 24  1  0  0  0  0
 23 24  2  0  0  0  0
 25 41  1  0  0  0  0
 25 42  1  0  0  0  0
 25 43  1  0  0  0  0
 26 44  1  0  0  0  0
 26 45  1  0  0  0  0
 26 46  1  0  0  0  0
 27 47  1  0  0  0  0
 27 48  1  0  0  0  0
 27 49  1  0  0  0  0
 28 50  1  0  0  0  0
 28 51  1  0  0  0  0
 28 52  1  0  0  0  0
M  END
> <PUBCHEM_COMPOUND_CID>
90655519

> <PUBCHEM_CONFORMER_RMSD>
0.8

> <PUBCHEM_CONFORMER_DIVERSEORDER>
1
9
7
2
11
8
3
10
6
5
4

> <PUBCHEM_MMFF94_PARTIAL_CHARGES>
36
1 -0.57
10 -0.12
11 0.47
12 -0.15
13 -0.15
14 -0.15
15 0.08
16 -0.15
17 -0.15
18 -0.18
19 0.03
2 -0.36
20 -0.15
21 -0.15
22 0.08
23 0.08
24 0.08
25 0.28
26 0.28
27 0.28
28 0.28
3 -0.36
33 0.15
34 0.15
35 0.15
36 0.15
37 0.15
38 0.15
39 0.15
4 -0.36
40 0.15
5 -0.36
6 0.14
7 0.14
8 -0.14
9 0.09

> <PUBCHEM_EFFECTIVE_ROTOR_COUNT>
6.4

> <PUBCHEM_PHARMACOPHORE_FEATURES>
8
1 1 acceptor
1 2 acceptor
1 3 acceptor
1 4 acceptor
1 5 acceptor
6 19 20 21 22 23 24 rings
6 6 7 8 9 10 11 rings
6 8 9 12 13 15 16 rings

> <PUBCHEM_HEAVY_ATOM_COUNT>
28

> <PUBCHEM_ATOM_DEF_STEREO_COUNT>
0

> <PUBCHEM_ATOM_UDEF_STEREO_COUNT>
0

> <PUBCHEM_BOND_DEF_STEREO_COUNT>
2

> <PUBCHEM_BOND_UDEF_STEREO_COUNT>
0

> <PUBCHEM_ISOTOPIC_ATOM_COUNT>
0

> <PUBCHEM_COMPONENT_COUNT>
1

> <PUBCHEM_CACTVS_TAUTO_COUNT>
1

> <PUBCHEM_CONFORMER_ID>
05674B1F00000001

> <PUBCHEM_MMFF94_ENERGY>
119.0036

> <PUBCHEM_FEATURE_SELFOVERLAP>
40.631

> <PUBCHEM_SHAPE_FINGERPRINT>
10299344 5 18410576192849186801
10595046 47 18409168792560170960
11315181 36 18410858785588520049
11524674 6 16702302382213438183
117089 54 17198559048640218614
11719270 70 18342735205368251946
11991303 11 13840276904688538513
12107183 9 17693099565654160592
12236239 1 18260829301889564708
12516196 113 18202280312010722056
13073987 5 18201156563935313704
13533116 47 18201435861394928922
1361 4 18411700997819560903
13617811 41 16370727015363509175
13685833 64 18410855468818375297
13885169 127 18409165485957572869
14118638 360 18412267220458648224
14251764 18 18273216417653105001
14933364 13 18410575093369454329
15183329 4 18411983546173371499
15352257 5 18411699885369874483
15510794 2 17894914062166206251
17844677 252 18411423886629791336
18335252 98 18410014355550738553
18608769 82 18411415146265582707
20771845 140 17418087695160872766
21130935 74 18273216361760910803
21267235 1 18412265025450512217
21315763 28 18335419045789742008
23522609 53 18126313958415921241
23559900 14 18339072808754757137
23576562 1 13696170543018524323
3004659 81 18334294250016217432
335352 9 18410852210177784061
335507 130 18343862221496768678
3383291 50 18408322198951539243
4073 2 18041565831434680418
4325135 7 18333733550562752060
439807 62 18410573989509774289
45377200 153 16701462410510537646
5104073 3 18059009476008582800
6138700 20 18408321095471159715
6441014 3 17117484269390641942
9831232 110 18197784297897132894
999808 66 18040726900579804707

> <PUBCHEM_SHAPE_MULTIPOLES>
546.88
26.37
2.59
0.8
13.43
0.76
-0.08
5.84
0.16
-3.12
-0.48
-1.06
0.1
-0.48

> <PUBCHEM_SHAPE_SELFOVERLAP>
1172.845

> <PUBCHEM_SHAPE_VOLUME>
304.3

> <PUBCHEM_COORDINATE_TYPE>
2
5
10

$$$$