2951338
  -OEChem-03242010103D

 48 50  0     1  0  0  0  0  0999 V2000
    3.6458   -3.6864    0.2027 O   0  0  0  0  0  0  0  0  0  0  0  0
    4.7463    2.6389   -0.1418 O   0  0  0  0  0  0  0  0  0  0  0  0
    1.9904    2.2699   -0.1635 O   0  0  0  0  0  0  0  0  0  0  0  0
   -4.3269    2.1552    0.0453 O   0  0  0  0  0  0  0  0  0  0  0  0
    3.5817   -0.8787   -0.2600 N   0  0  0  0  0  0  0  0  0  0  0  0
    4.1857    0.3752   -0.7056 C   0  0  0  0  0  0  0  0  0  0  0  0
    4.3421   -1.4563    0.8570 C   0  0  0  0  0  0  0  0  0  0  0  0
    3.5028   -1.8421   -1.3668 C   0  0  0  0  0  0  0  0  0  0  0  0
    4.1744    1.4413    0.3924 C   0  0  2  0  0  0  0  0  0  0  0  0
    3.7010   -2.7695    1.2962 C   0  0  0  0  0  0  0  0  0  0  0  0
    2.8804   -3.1457   -0.8748 C   0  0  0  0  0  0  0  0  0  0  0  0
    2.7742    1.7606    0.9112 C   0  0  0  0  0  0  0  0  0  0  0  0
    0.6460    2.0138   -0.1199 C   0  0  0  0  0  0  0  0  0  0  0  0
   -0.0705    1.8892   -1.3053 C   0  0  0  0  0  0  0  0  0  0  0  0
    0.0092    1.8805    1.1093 C   0  0  0  0  0  0  0  0  0  0  0  0
   -2.0849    1.4931   -0.0315 C   0  0  0  0  0  0  0  0  0  0  0  0
   -1.4400    1.6283   -1.2610 C   0  0  0  0  0  0  0  0  0  0  0  0
   -1.3603    1.6193    1.1537 C   0  0  0  0  0  0  0  0  0  0  0  0
   -3.5127    1.2204    0.0151 C   0  0  0  0  0  0  0  0  0  0  0  0
   -4.0627   -0.1687    0.0286 C   0  0  0  0  0  0  0  0  0  0  0  0
   -3.1824   -1.2248   -0.0040 C   0  0  0  0  0  0  0  0  0  0  0  0
   -5.4272   -0.3350    0.0731 C   0  0  0  0  0  0  0  0  0  0  0  0
   -3.6961   -2.5216    0.0089 C   0  0  0  0  0  0  0  0  0  0  0  0
   -5.9409   -1.6317    0.0862 C   0  0  0  0  0  0  0  0  0  0  0  0
   -5.0753   -2.7252    0.0542 C   0  0  0  0  0  0  0  0  0  0  0  0
    5.2178    0.2229   -1.0507 H   0  0  0  0  0  0  0  0  0  0  0  0
    3.6430    0.7602   -1.5795 H   0  0  0  0  0  0  0  0  0  0  0  0
    5.3823   -1.6392    0.5577 H   0  0  0  0  0  0  0  0  0  0  0  0
    4.3468   -0.8025    1.7336 H   0  0  0  0  0  0  0  0  0  0  0  0
    4.5046   -2.0444   -1.7675 H   0  0  0  0  0  0  0  0  0  0  0  0
    2.8864   -1.4395   -2.1787 H   0  0  0  0  0  0  0  0  0  0  0  0
    4.8201    1.1601    1.2291 H   0  0  0  0  0  0  0  0  0  0  0  0
    4.3008   -3.2316    2.0868 H   0  0  0  0  0  0  0  0  0  0  0  0
    2.6908   -2.6135    1.6945 H   0  0  0  0  0  0  0  0  0  0  0  0
    1.8425   -3.0013   -0.5506 H   0  0  0  0  0  0  0  0  0  0  0  0
    2.8751   -3.8844   -1.6827 H   0  0  0  0  0  0  0  0  0  0  0  0
    2.3449    0.8576    1.3611 H   0  0  0  0  0  0  0  0  0  0  0  0
    2.8420    2.5449    1.6745 H   0  0  0  0  0  0  0  0  0  0  0  0
    4.1653    2.9515   -0.8564 H   0  0  0  0  0  0  0  0  0  0  0  0
    0.4283    1.9926   -2.2648 H   0  0  0  0  0  0  0  0  0  0  0  0
    0.5290    2.0032    2.0546 H   0  0  0  0  0  0  0  0  0  0  0  0
   -1.9946    1.5318   -2.1909 H   0  0  0  0  0  0  0  0  0  0  0  0
   -1.8542    1.5229    2.1172 H   0  0  0  0  0  0  0  0  0  0  0  0
   -2.1050   -1.1066   -0.0392 H   0  0  0  0  0  0  0  0  0  0  0  0
   -6.1205    0.4997    0.0987 H   0  0  0  0  0  0  0  0  0  0  0  0
   -3.0224   -3.3733   -0.0161 H   0  0  0  0  0  0  0  0  0  0  0  0
   -7.0148   -1.7906    0.1214 H   0  0  0  0  0  0  0  0  0  0  0  0
   -5.4753   -3.7349    0.0644 H   0  0  0  0  0  0  0  0  0  0  0  0
  1 10  1  0  0  0  0
  1 11  1  0  0  0  0
  2  9  1  0  0  0  0
  2 39  1  0  0  0  0
  3 12  1  0  0  0  0
  3 13  1  0  0  0  0
  4 19  2  0  0  0  0
  5  6  1  0  0  0  0
  5  7  1  0  0  0  0
  5  8  1  0  0  0  0
  6  9  1  0  0  0  0
  6 26  1  0  0  0  0
  6 27  1  0  0  0  0
  7 10  1  0  0  0  0
  7 28  1  0  0  0  0
  7 29  1  0  0  0  0
  8 11  1  0  0  0  0
  8 30  1  0  0  0  0
  8 31  1  0  0  0  0
  9 12  1  0  0  0  0
  9 32  1  0  0  0  0
 10 33  1  0  0  0  0
 10 34  1  0  0  0  0
 11 35  1  0  0  0  0
 11 36  1  0  0  0  0
 12 37  1  0  0  0  0
 12 38  1  0  0  0  0
 13 14  2  0  0  0  0
 13 15  1  0  0  0  0
 14 17  1  0  0  0  0
 14 40  1  0  0  0  0
 15 18  2  0  0  0  0
 15 41  1  0  0  0  0
 16 17  2  0  0  0  0
 16 18  1  0  0  0  0
 16 19  1  0  0  0  0
 17 42  1  0  0  0  0
 18 43  1  0  0  0  0
 19 20  1  0  0  0  0
 20 21  2  0  0  0  0
 20 22  1  0  0  0  0
 21 23  1  0  0  0  0
 21 44  1  0  0  0  0
 22 24  2  0  0  0  0
 22 45  1  0  0  0  0
 23 25  2  0  0  0  0
 23 46  1  0  0  0  0
 24 25  1  0  0  0  0
 24 47  1  0  0  0  0
 25 48  1  0  0  0  0
M  END
> <PUBCHEM_COMPOUND_CID>
2951338

> <PUBCHEM_CONFORMER_RMSD>
0.8

> <PUBCHEM_CONFORMER_DIVERSEORDER>
3
22
87
46
31
52
90
17
73
56
64
37
80
40
71
94
67
95
68
50
51
74
98
79
1
84
43
41
91
53
72
83
9
65
2
26
11
36
75
99
34
16
35
60
42
14
39
10
97
55
58
49
54
62
63
24
47
57
38
6
48
88
101
96
33
69
66
61
5
4
30
59
100
23
89
78
81
13
77
82
18
15
45
8
32
76
12
93
20
92
25
28
44
21
19
85
29
86
27
70
7

> <PUBCHEM_MMFF94_PARTIAL_CHARGES>
35
1 -0.56
10 0.28
11 0.28
12 0.28
13 0.08
14 -0.15
15 -0.15
16 0.09
17 -0.15
18 -0.15
19 0.4
2 -0.68
20 0.09
21 -0.15
22 -0.15
23 -0.15
24 -0.15
25 -0.15
3 -0.36
39 0.4
4 -0.57
40 0.15
41 0.15
42 0.15
43 0.15
44 0.15
45 0.15
46 0.15
47 0.15
48 0.15
5 -0.81
6 0.27
7 0.27
8 0.27
9 0.28

> <PUBCHEM_EFFECTIVE_ROTOR_COUNT>
8.2

> <PUBCHEM_PHARMACOPHORE_FEATURES>
9
1 1 acceptor
1 2 acceptor
1 2 donor
1 3 acceptor
1 4 acceptor
1 5 cation
6 1 5 7 8 10 11 rings
6 13 14 15 16 17 18 rings
6 20 21 22 23 24 25 rings

> <PUBCHEM_HEAVY_ATOM_COUNT>
25

> <PUBCHEM_ATOM_DEF_STEREO_COUNT>
0

> <PUBCHEM_ATOM_UDEF_STEREO_COUNT>
1

> <PUBCHEM_BOND_DEF_STEREO_COUNT>
0

> <PUBCHEM_BOND_UDEF_STEREO_COUNT>
0

> <PUBCHEM_ISOTOPIC_ATOM_COUNT>
0

> <PUBCHEM_COMPONENT_COUNT>
1

> <PUBCHEM_CACTVS_TAUTO_COUNT>
1

> <PUBCHEM_CONFORMER_ID>
002D08AA00000003

> <PUBCHEM_MMFF94_ENERGY>
78.23

> <PUBCHEM_FEATURE_SELFOVERLAP>
45.676

> <PUBCHEM_SHAPE_FINGERPRINT>
10928967 22 17974585597463216034
11186622 123 18408601482946010019
11315621 136 18340495487065221726
11796584 16 18342743966162604053
12107183 9 18124884447671415953
12596599 1 18127702534432347738
12596602 18 16271088283716718875
13150687 139 17825973661187817532
13255334 9 18410857646271874702
13402501 40 18337673121788485514
13533116 47 18273494589699842313
13551218 46 18411703210228280619
13583140 156 17846489383329180697
1361 2 18045225088079623908
14251751 18 18189045413622535594
14617045 38 18341057426936255383
14681488 357 18129677296124033462
14910302 57 18188479195025286029
15003188 105 18260263019590414658
15250474 111 18411698789931330179
15475509 35 18129658737748967753
15664445 248 17968380164347429108
15799311 1 18340223937283256193
17492 89 18341333292886442734
1813 80 17458063789645391893
19301679 30 18336272353350494011
19958102 18 18260816078592381949
20567600 70 18265890268809418058
20775530 9 18410572859923280550
21197605 99 18267585891479822610
21315759 227 18338506427264306214
21673915 165 18339079396938514173
23559900 14 18270679758138472396
239999 70 18130797789094103700
25222932 49 18201437042626831012
3246872 21 17909542110058245375
325973 47 16608850791133260915
33382 64 18340491161658712265
345986 75 17847063272473796627
444735 86 18266729350246540439
463206 1 18053946426900385715
5104073 3 18201719539806245321
5326457 24 18409732880658651273
6433294 58 18411136939669410778
6823239 73 17916602929413844982
7399639 24 18264754606278985308
7970288 3 17834960772305559494

> <PUBCHEM_SHAPE_MULTIPOLES>
486.03
13.25
4.36
1.13
6.66
2.64
-0.06
7.63
0.66
-2.75
0.07
-0.84
-0.02
0.11

> <PUBCHEM_SHAPE_SELFOVERLAP>
1032.289

> <PUBCHEM_SHAPE_VOLUME>
271

> <PUBCHEM_COORDINATE_TYPE>
2
5
10

$$$$