276138
  -OEChem-03242010103D

 41 44  0     0  0  0  0  0  0999 V2000
   -0.5605   -0.0659    0.0751 O   0  0  0  0  0  0  0  0  0  0  0  0
   -1.8706   -3.9011   -0.2589 O   0  0  0  0  0  0  0  0  0  0  0  0
    3.9018    2.0710   -0.7926 O   0  0  0  0  0  0  0  0  0  0  0  0
    5.7428    0.3557    0.3880 O   0  0  0  0  0  0  0  0  0  0  0  0
   -1.9136   -0.3101    0.0025 C   0  0  0  0  0  0  0  0  0  0  0  0
   -2.7856    0.8021    0.0526 C   0  0  0  0  0  0  0  0  0  0  0  0
   -2.4198   -1.6061   -0.1150 C   0  0  0  0  0  0  0  0  0  0  0  0
   -4.1823    0.5742   -0.0200 C   0  0  0  0  0  0  0  0  0  0  0  0
    0.3216   -1.1321    0.0243 C   0  0  0  0  0  0  0  0  0  0  0  0
   -3.7941   -1.8241   -0.1863 C   0  0  0  0  0  0  0  0  0  0  0  0
   -1.4870   -2.7434   -0.1608 C   0  0  0  0  0  0  0  0  0  0  0  0
    1.7419   -0.7386    0.1182 C   0  0  0  0  0  0  0  0  0  0  0  0
   -4.6671   -0.7380   -0.1390 C   0  0  0  0  0  0  0  0  0  0  0  0
   -0.0513   -2.4163   -0.0799 C   0  0  0  0  0  0  0  0  0  0  0  0
   -2.3302    2.1329    0.1724 C   0  0  0  0  0  0  0  0  0  0  0  0
   -5.0686    1.6630    0.0283 C   0  0  0  0  0  0  0  0  0  0  0  0
    2.1640    0.4944   -0.3855 C   0  0  0  0  0  0  0  0  0  0  0  0
    2.6706   -1.5983    0.7105 C   0  0  0  0  0  0  0  0  0  0  0  0
   -3.2252    3.2028    0.2190 C   0  0  0  0  0  0  0  0  0  0  0  0
   -4.5928    2.9679    0.1470 C   0  0  0  0  0  0  0  0  0  0  0  0
    3.5059    0.8652   -0.2974 C   0  0  0  0  0  0  0  0  0  0  0  0
    4.4299    0.0042    0.2947 C   0  0  0  0  0  0  0  0  0  0  0  0
    4.0123   -1.2276    0.7985 C   0  0  0  0  0  0  0  0  0  0  0  0
    3.8668    3.1818    0.1014 C   0  0  0  0  0  0  0  0  0  0  0  0
    6.5913   -0.0138   -0.6972 C   0  0  0  0  0  0  0  0  0  0  0  0
   -4.2045   -2.8258   -0.2778 H   0  0  0  0  0  0  0  0  0  0  0  0
   -5.7373   -0.9278   -0.1957 H   0  0  0  0  0  0  0  0  0  0  0  0
    0.6406   -3.2487   -0.1318 H   0  0  0  0  0  0  0  0  0  0  0  0
   -1.2663    2.3533    0.2311 H   0  0  0  0  0  0  0  0  0  0  0  0
   -6.1438    1.5031   -0.0263 H   0  0  0  0  0  0  0  0  0  0  0  0
    1.4609    1.1765   -0.8588 H   0  0  0  0  0  0  0  0  0  0  0  0
    2.3817   -2.5564    1.1344 H   0  0  0  0  0  0  0  0  0  0  0  0
   -2.8517    4.2185    0.3115 H   0  0  0  0  0  0  0  0  0  0  0  0
   -5.2906    3.7993    0.1832 H   0  0  0  0  0  0  0  0  0  0  0  0
    4.7262   -1.9005    1.2660 H   0  0  0  0  0  0  0  0  0  0  0  0
    4.5274    3.0091    0.9568 H   0  0  0  0  0  0  0  0  0  0  0  0
    2.8441    3.3638    0.4467 H   0  0  0  0  0  0  0  0  0  0  0  0
    4.2167    4.0664   -0.4376 H   0  0  0  0  0  0  0  0  0  0  0  0
    6.2509    0.4508   -1.6280 H   0  0  0  0  0  0  0  0  0  0  0  0
    6.6193   -1.1024   -0.8085 H   0  0  0  0  0  0  0  0  0  0  0  0
    7.6018    0.3417   -0.4782 H   0  0  0  0  0  0  0  0  0  0  0  0
  1  5  1  0  0  0  0
  1  9  1  0  0  0  0
  2 11  2  0  0  0  0
  3 21  1  0  0  0  0
  3 24  1  0  0  0  0
  4 22  1  0  0  0  0
  4 25  1  0  0  0  0
  5  6  1  0  0  0  0
  5  7  2  0  0  0  0
  6  8  1  0  0  0  0
  6 15  2  0  0  0  0
  7 10  1  0  0  0  0
  7 11  1  0  0  0  0
  8 13  1  0  0  0  0
  8 16  2  0  0  0  0
  9 12  1  0  0  0  0
  9 14  2  0  0  0  0
 10 13  2  0  0  0  0
 10 26  1  0  0  0  0
 11 14  1  0  0  0  0
 12 17  2  0  0  0  0
 12 18  1  0  0  0  0
 13 27  1  0  0  0  0
 14 28  1  0  0  0  0
 15 19  1  0  0  0  0
 15 29  1  0  0  0  0
 16 20  1  0  0  0  0
 16 30  1  0  0  0  0
 17 21  1  0  0  0  0
 17 31  1  0  0  0  0
 18 23  2  0  0  0  0
 18 32  1  0  0  0  0
 19 20  2  0  0  0  0
 19 33  1  0  0  0  0
 20 34  1  0  0  0  0
 21 22  2  0  0  0  0
 22 23  1  0  0  0  0
 23 35  1  0  0  0  0
 24 36  1  0  0  0  0
 24 37  1  0  0  0  0
 24 38  1  0  0  0  0
 25 39  1  0  0  0  0
 25 40  1  0  0  0  0
 25 41  1  0  0  0  0
M  END
> <PUBCHEM_COMPOUND_CID>
276138

> <PUBCHEM_CONFORMER_RMSD>
0.6

> <PUBCHEM_CONFORMER_DIVERSEORDER>
1
8
12
5
6
11
9
3
7
10
4
2

> <PUBCHEM_MMFF94_PARTIAL_CHARGES>
33
1 -0.16
10 -0.15
11 0.47
12 0.03
13 -0.15
14 -0.14
15 -0.15
16 -0.15
17 -0.15
18 -0.15
19 -0.15
2 -0.57
20 -0.15
21 0.08
22 0.08
23 -0.15
24 0.28
25 0.28
26 0.15
27 0.15
28 0.15
29 0.15
3 -0.36
30 0.15
31 0.15
32 0.15
33 0.15
34 0.15
35 0.15
4 -0.36
5 0.08
7 0.09
9 0.05

> <PUBCHEM_EFFECTIVE_ROTOR_COUNT>
3

> <PUBCHEM_PHARMACOPHORE_FEATURES>
8
1 1 acceptor
1 2 acceptor
1 3 acceptor
1 4 acceptor
6 1 5 7 9 11 14 rings
6 12 17 18 21 22 23 rings
6 5 6 7 8 10 13 rings
6 6 8 15 16 19 20 rings

> <PUBCHEM_HEAVY_ATOM_COUNT>
25

> <PUBCHEM_ATOM_DEF_STEREO_COUNT>
0

> <PUBCHEM_ATOM_UDEF_STEREO_COUNT>
0

> <PUBCHEM_BOND_DEF_STEREO_COUNT>
0

> <PUBCHEM_BOND_UDEF_STEREO_COUNT>
0

> <PUBCHEM_ISOTOPIC_ATOM_COUNT>
0

> <PUBCHEM_COMPONENT_COUNT>
1

> <PUBCHEM_CACTVS_TAUTO_COUNT>
1

> <PUBCHEM_CONFORMER_ID>
000436AA00000001

> <PUBCHEM_MMFF94_ENERGY>
100.8519

> <PUBCHEM_FEATURE_SELFOVERLAP>
40.655

> <PUBCHEM_SHAPE_FINGERPRINT>
10411042 1 17907014329148316079
10670039 82 18410293605639464052
12107183 9 18119519939134738066
12173636 292 18412256234106060279
12236239 1 18186518796142335066
12390115 104 18200323121547254777
12403259 415 18060694000931497618
12403260 363 18338785746077938735
12788726 201 17972899217156542263
12978246 48 18409731737944389993
13583140 156 17313103025614119889
13785724 45 17616809934355906354
138480 1 17186158665985430283
13965767 371 17824827732982757469
14117953 113 17977659810256885725
14508225 48 17912065455627811287
14739800 52 18196636605410593912
14767858 380 18270098160207224965
14790565 3 18340774750107790849
15042514 8 18265618873947208851
15183329 4 18341339886399792054
15196674 1 18338515244473507675
15320467 1 18266740173438168904
17834072 32 18339361859958253921
17844677 252 18337961193998070818
18681886 176 18271802454553496522
20101258 96 18049728717771707067
20715895 44 18121494649186237605
21033648 29 17703207595476389146
21065198 48 18261106340275783202
21267235 1 18336553814751530674
21421861 104 17750504076109458386
21756936 100 18271232872595693646
23227448 37 18412261714473903869
23559900 14 18129665188653183254
245318 6 17460895130955916588
335352 9 18410011005871834910
350125 39 18409166597409616609
38570 142 17387724737024616132
4214541 1 18410011039688292892
474 4 17531529909754874668
5104073 3 18260264152922976994
6327066 14 18191581961426476701
6328613 192 18187655747475070276
6371009 1 18266722611558878065
6700243 42 17482025566423672223
7064713 232 18409726223111299829
7808743 9 18411696565206940259
9981440 41 18336266743822720171

> <PUBCHEM_SHAPE_MULTIPOLES>
491.01
12.93
3.88
0.72
10.94
0.36
0.01
6.65
-0.48
-3.05
-0.04
0.4
-0.01
-0.88

> <PUBCHEM_SHAPE_SELFOVERLAP>
1098.686

> <PUBCHEM_SHAPE_VOLUME>
260.6

> <PUBCHEM_COORDINATE_TYPE>
2
5
10

$$$$