139
 OpenBabel03292022003D

134142  0  0  1  0  0  0  0  0999 V2000
    5.4619   -2.7666    4.5258 C   0  0  0  0  0  0  0  0  0  0  0  0
    4.9725   -2.2576    3.3917 C   0  0  0  0  0  0  0  0  0  0  0  0
    5.2130   -2.8641    2.0309 C   0  0  1  0  0  0  0  0  0  0  0  0
    3.8926   -3.3237    1.3642 C   0  0  0  0  0  0  0  0  0  0  0  0
    3.8243   -2.9132   -0.0593 N   0  0  3  0  0  0  0  0  0  0  0  0
    5.0441   -3.3993   -0.7487 C   0  0  0  0  0  0  0  0  0  0  0  0
    6.3229   -2.7766   -0.1759 C   0  0  0  0  0  0  0  0  0  0  0  0
    5.9526   -1.9225    1.0468 C   0  0  1  0  0  0  0  0  0  0  0  0
    5.0196   -0.8063    0.5184 C   0  0  0  0  0  0  0  0  0  0  0  0
    3.7436   -1.4207   -0.1214 C   0  0  1  0  0  0  0  0  0  0  0  0
    3.3854   -0.8524   -1.5543 C   0  0  2  0  0  0  0  0  0  0  0  0
    2.0927   -1.3929   -1.9909 O   0  0  0  0  0  0  0  0  0  0  0  0
    2.0361   -2.5698   -2.6607 C   0  0  0  0  0  0  0  0  0  0  0  0
    2.9953   -3.2606   -2.9640 O   0  0  0  0  0  0  0  0  0  0  0  0
    0.6194   -2.9993   -3.0169 C   0  0  0  0  0  0  0  0  0  0  0  0
   -0.4665   -1.9248   -3.0761 C   0  0  0  0  0  0  0  0  0  0  0  0
   -0.8949   -1.4466   -1.6904 C   0  0  0  0  0  0  0  0  0  0  0  0
   -2.0311   -0.4275   -1.7461 C   0  0  0  0  0  0  0  0  0  0  0  0
   -2.3077    0.1110   -0.3412 C   0  0  0  0  0  0  0  0  0  0  0  0
   -3.4168    1.1568   -0.3437 C   0  0  0  0  0  0  0  0  0  0  0  0
   -3.7284    1.6313    0.9879 N   0  0  0  0  0  0  0  0  0  0  0  0
   -2.9533    2.3829    1.8213 C   0  0  0  0  0  0  0  0  0  0  0  0
   -3.7491    2.5756    2.9295 C   0  0  0  0  0  0  0  0  0  0  0  0
   -3.4785    3.3095    4.1925 C   0  0  0  0  0  0  0  0  0  0  0  0
   -3.7211    4.8247    4.1131 C   0  0  0  0  0  0  0  0  0  0  0  0
   -5.1600    5.2032    3.7420 C   0  0  0  0  0  0  0  0  0  0  0  0
   -5.4815    6.6953    3.8874 C   0  0  0  0  0  0  0  0  0  0  0  0
   -4.7046    7.6824    3.0292 C   0  0  0  0  0  0  0  0  0  0  0  0
   -3.7812    7.4340    2.2712 O   0  0  0  0  0  0  0  0  0  0  0  0
   -5.2211    8.9277    3.2669 O   0  0  0  0  0  0  0  0  0  0  0  0
   -4.7556   10.1338    2.5825 C   0  0  2  0  0  0  0  0  0  0  0  0
   -5.0034   10.0420    1.0794 C   0  0  0  0  0  0  0  0  0  0  0  0
   -3.9278    9.8296    0.2080 C   0  0  0  0  0  0  0  0  0  0  0  0
   -4.1762    9.6440   -1.1365 C   0  0  0  0  0  0  0  0  0  0  0  0
   -5.4050    9.6630   -1.6810 N   0  0  0  0  0  0  0  0  0  0  0  0
   -6.4408    9.9240   -0.8755 C   0  0  0  0  0  0  0  0  0  0  0  0
   -7.6873   10.0106   -1.4728 C   0  0  0  0  0  0  0  0  0  0  0  0
   -8.8307   10.3676   -0.7580 C   0  0  0  0  0  0  0  0  0  0  0  0
   -8.7396   10.6114    0.6043 C   0  0  0  0  0  0  0  0  0  0  0  0
   -9.7712   11.0069    1.4117 O   0  0  0  0  0  0  0  0  0  0  0  0
  -11.0041   11.3098    0.7636 C   0  0  0  0  0  0  0  0  0  0  0  0
   -7.5001   10.4596    1.2392 C   0  0  0  0  0  0  0  0  0  0  0  0
   -6.3168   10.1366    0.5188 C   0  0  0  0  0  0  0  0  0  0  0  0
   -3.3455   10.6560    3.1025 C   0  0  2  0  0  0  0  0  0  0  0  0
   -3.2458   10.5908    4.6518 C   0  0  0  0  0  0  0  0  0  0  0  0
   -3.1780   12.0153    5.2407 C   0  0  2  0  0  0  0  0  0  0  0  0
   -4.2845   12.8740    4.5977 C   0  0  0  0  0  0  0  0  0  0  0  0
   -4.0085   13.0204    3.0934 C   0  0  0  0  0  0  0  0  0  0  0  0
   -2.9788   12.0511    2.6522 N   0  0  3  0  0  0  0  0  0  0  0  0
   -1.6877   12.4574    3.2926 C   0  0  0  0  0  0  0  0  0  0  0  0
   -1.8231   12.6471    4.8365 C   0  0  2  0  0  0  0  0  0  0  0  0
   -0.6907   12.1186    5.7008 C   0  0  0  0  0  0  0  0  0  0  0  0
    0.5701   11.9064    5.3408 C   0  0  0  0  0  0  0  0  0  0  0  0
   -4.9447    1.9324    2.7364 N   0  0  0  0  0  0  0  0  0  0  0  0
   -4.9196    1.3562    1.5436 N   0  0  0  0  0  0  0  0  0  0  0  0
    3.1679    0.6733   -1.5524 C   0  0  0  0  0  0  0  0  0  0  0  0
    2.0878    1.1728   -0.8054 C   0  0  0  0  0  0  0  0  0  0  0  0
    1.7738    2.5144   -0.8713 C   0  0  0  0  0  0  0  0  0  0  0  0
    2.4538    3.3951   -1.6183 N   0  0  0  0  0  0  0  0  0  0  0  0
    3.5099    2.9558   -2.3094 C   0  0  0  0  0  0  0  0  0  0  0  0
    4.1961    3.9051   -3.0542 C   0  0  0  0  0  0  0  0  0  0  0  0
    5.3442    3.5908   -3.7787 C   0  0  0  0  0  0  0  0  0  0  0  0
    5.8260    2.2888   -3.7621 C   0  0  0  0  0  0  0  0  0  0  0  0
    6.9584    1.8546   -4.3946 O   0  0  0  0  0  0  0  0  0  0  0  0
    7.7448    2.8430   -5.0575 C   0  0  0  0  0  0  0  0  0  0  0  0
    5.1206    1.3054   -3.0497 C   0  0  0  0  0  0  0  0  0  0  0  0
    3.9484    1.6052   -2.3073 C   0  0  0  0  0  0  0  0  0  0  0  0
    5.2408   -2.3082    5.4868 H   0  0  0  0  0  0  0  0  0  0  0  0
    6.0884   -3.6548    4.5340 H   0  0  0  0  0  0  0  0  0  0  0  0
    4.3414   -1.3708    3.4432 H   0  0  0  0  0  0  0  0  0  0  0  0
    5.8429   -3.7574    2.1651 H   0  0  0  0  0  0  0  0  0  0  0  0
    3.0110   -2.9489    1.8996 H   0  0  0  0  0  0  0  0  0  0  0  0
    3.8165   -4.4181    1.4241 H   0  0  0  0  0  0  0  0  0  0  0  0
    5.0129   -3.1876   -1.8197 H   0  0  0  0  0  0  0  0  0  0  0  0
    5.0881   -4.4930   -0.6737 H   0  0  0  0  0  0  0  0  0  0  0  0
    6.8109   -2.1549   -0.9365 H   0  0  0  0  0  0  0  0  0  0  0  0
    7.0322   -3.5655    0.0997 H   0  0  0  0  0  0  0  0  0  0  0  0
    6.8549   -1.4963    1.4991 H   0  0  0  0  0  0  0  0  0  0  0  0
    5.5719   -0.1968   -0.2065 H   0  0  0  0  0  0  0  0  0  0  0  0
    4.7377   -0.1420    1.3437 H   0  0  0  0  0  0  0  0  0  0  0  0
    2.8959   -1.1473    0.5226 H   0  0  0  0  0  0  0  0  0  0  0  0
    4.1469   -1.1291   -2.2867 H   0  0  0  0  0  0  0  0  0  0  0  0
    0.3166   -3.8053   -2.3396 H   0  0  0  0  0  0  0  0  0  0  0  0
    0.6949   -3.4276   -4.0252 H   0  0  0  0  0  0  0  0  0  0  0  0
   -1.3430   -2.3554   -3.5792 H   0  0  0  0  0  0  0  0  0  0  0  0
   -0.1319   -1.0799   -3.6890 H   0  0  0  0  0  0  0  0  0  0  0  0
   -0.0503   -0.9848   -1.1770 H   0  0  0  0  0  0  0  0  0  0  0  0
   -1.2014   -2.3048   -1.0811 H   0  0  0  0  0  0  0  0  0  0  0  0
   -2.9335   -0.8974   -2.1546 H   0  0  0  0  0  0  0  0  0  0  0  0
   -1.7615    0.3998   -2.4134 H   0  0  0  0  0  0  0  0  0  0  0  0
   -1.3884    0.5515    0.0663 H   0  0  0  0  0  0  0  0  0  0  0  0
   -2.5773   -0.7187    0.3246 H   0  0  0  0  0  0  0  0  0  0  0  0
   -4.3338    0.7398   -0.7759 H   0  0  0  0  0  0  0  0  0  0  0  0
   -3.1314    2.0318   -0.9377 H   0  0  0  0  0  0  0  0  0  0  0  0
   -1.9537    2.7029    1.5693 H   0  0  0  0  0  0  0  0  0  0  0  0
   -2.4334    3.1378    4.4823 H   0  0  0  0  0  0  0  0  0  0  0  0
   -4.0901    2.8802    4.9962 H   0  0  0  0  0  0  0  0  0  0  0  0
   -3.0245    5.2612    3.3890 H   0  0  0  0  0  0  0  0  0  0  0  0
   -3.4770    5.2558    5.0929 H   0  0  0  0  0  0  0  0  0  0  0  0
   -5.8415    4.6527    4.4042 H   0  0  0  0  0  0  0  0  0  0  0  0
   -5.3834    4.8769    2.7205 H   0  0  0  0  0  0  0  0  0  0  0  0
   -5.3427    6.9885    4.9346 H   0  0  0  0  0  0  0  0  0  0  0  0
   -6.5456    6.8194    3.6433 H   0  0  0  0  0  0  0  0  0  0  0  0
   -5.4635   10.8761    2.9534 H   0  0  0  0  0  0  0  0  0  0  0  0
   -2.9008    9.7954    0.5532 H   0  0  0  0  0  0  0  0  0  0  0  0
   -3.3640    9.4677   -1.8353 H   0  0  0  0  0  0  0  0  0  0  0  0
   -7.7681    9.8213   -2.5412 H   0  0  0  0  0  0  0  0  0  0  0  0
   -9.7633   10.4548   -1.3040 H   0  0  0  0  0  0  0  0  0  0  0  0
  -11.7188   11.6305    1.5274 H   0  0  0  0  0  0  0  0  0  0  0  0
  -11.4193   10.4226    0.2742 H   0  0  0  0  0  0  0  0  0  0  0  0
  -10.8864   12.1339    0.0508 H   0  0  0  0  0  0  0  0  0  0  0  0
   -7.4671   10.6397    2.3104 H   0  0  0  0  0  0  0  0  0  0  0  0
   -2.5840    9.9698    2.7114 H   0  0  0  0  0  0  0  0  0  0  0  0
   -2.3362   10.0377    4.9240 H   0  0  0  0  0  0  0  0  0  0  0  0
   -4.0815   10.0493    5.0986 H   0  0  0  0  0  0  0  0  0  0  0  0
   -3.3074   11.9858    6.3281 H   0  0  0  0  0  0  0  0  0  0  0  0
   -4.3104   13.8667    5.0625 H   0  0  0  0  0  0  0  0  0  0  0  0
   -5.2635   12.4121    4.7676 H   0  0  0  0  0  0  0  0  0  0  0  0
   -3.6759   14.0428    2.8687 H   0  0  0  0  0  0  0  0  0  0  0  0
   -4.9327   12.9028    2.5171 H   0  0  0  0  0  0  0  0  0  0  0  0
   -1.3567   13.4085    2.8539 H   0  0  0  0  0  0  0  0  0  0  0  0
   -0.9171   11.7266    3.0251 H   0  0  0  0  0  0  0  0  0  0  0  0
   -1.8826   13.7241    5.0531 H   0  0  0  0  0  0  0  0  0  0  0  0
   -0.9540   11.9174    6.7420 H   0  0  0  0  0  0  0  0  0  0  0  0
    0.9422   12.1116    4.3385 H   0  0  0  0  0  0  0  0  0  0  0  0
    1.2953   11.5263    6.0589 H   0  0  0  0  0  0  0  0  0  0  0  0
    1.4688    0.5183   -0.1956 H   0  0  0  0  0  0  0  0  0  0  0  0
    0.9343    2.9240   -0.3167 H   0  0  0  0  0  0  0  0  0  0  0  0
    3.8258    4.9289   -3.0676 H   0  0  0  0  0  0  0  0  0  0  0  0
    5.8336    4.3879   -4.3301 H   0  0  0  0  0  0  0  0  0  0  0  0
    8.6310    2.3487   -5.4664 H   0  0  0  0  0  0  0  0  0  0  0  0
    8.0882    3.6144   -4.3595 H   0  0  0  0  0  0  0  0  0  0  0  0
    7.1947    3.2855   -5.8945 H   0  0  0  0  0  0  0  0  0  0  0  0
    5.5246    0.2979   -3.0653 H   0  0  0  0  0  0  0  0  0  0  0  0
  1  2  2  0  0  0  0
  1 68  1  0  0  0  0
  1 69  1  0  0  0  0
  2 70  1  0  0  0  0
  3  4  1  0  0  0  0
  3  8  1  0  0  0  0
  3  2  1  0  0  0  0
  3 71  1  1  0  0  0
  4  5  1  0  0  0  0
  4 72  1  0  0  0  0
  4 73  1  0  0  0  0
  5  6  1  0  0  0  0
  5 10  1  0  0  0  0
  6  7  1  0  0  0  0
  6 74  1  0  0  0  0
  6 75  1  0  0  0  0
  7  8  1  0  0  0  0
  7 76  1  0  0  0  0
  7 77  1  0  0  0  0
  8  9  1  0  0  0  0
  8 78  1  1  0  0  0
  9 10  1  0  0  0  0
  9 79  1  0  0  0  0
  9 80  1  0  0  0  0
 10 11  1  0  0  0  0
 10 81  1  1  0  0  0
 11 56  1  0  0  0  0
 11 12  1  0  0  0  0
 11 82  1  1  0  0  0
 12 13  1  0  0  0  0
 13 14  2  0  0  0  0
 13 15  1  0  0  0  0
 15 16  1  0  0  0  0
 15 83  1  0  0  0  0
 15 84  1  0  0  0  0
 16 17  1  0  0  0  0
 16 85  1  0  0  0  0
 16 86  1  0  0  0  0
 17 18  1  0  0  0  0
 17 87  1  0  0  0  0
 17 88  1  0  0  0  0
 18 19  1  0  0  0  0
 18 89  1  0  0  0  0
 18 90  1  0  0  0  0
 19 20  1  0  0  0  0
 19 91  1  0  0  0  0
 19 92  1  0  0  0  0
 20 21  1  0  0  0  0
 20 93  1  0  0  0  0
 20 94  1  0  0  0  0
 21 22  1  0  0  0  0
 21 55  1  0  0  0  0
 22 23  2  0  0  0  0
 22 95  1  0  0  0  0
 23 24  1  0  0  0  0
 23 54  1  0  0  0  0
 24 25  1  0  0  0  0
 24 96  1  0  0  0  0
 24 97  1  0  0  0  0
 25 26  1  0  0  0  0
 25 98  1  0  0  0  0
 25 99  1  0  0  0  0
 26 27  1  0  0  0  0
 26100  1  0  0  0  0
 26101  1  0  0  0  0
 27 28  1  0  0  0  0
 27102  1  0  0  0  0
 27103  1  0  0  0  0
 28 29  2  0  0  0  0
 28 30  1  0  0  0  0
 31 44  1  0  0  0  0
 31 32  1  0  0  0  0
 31 30  1  0  0  0  0
 31104  1  1  0  0  0
 32 33  1  0  0  0  0
 32 43  2  0  0  0  0
 33 34  2  0  0  0  0
 33105  1  0  0  0  0
 34 35  1  0  0  0  0
 34106  1  0  0  0  0
 35 36  2  0  0  0  0
 36 37  1  0  0  0  0
 36 43  1  0  0  0  0
 37 38  2  0  0  0  0
 37107  1  0  0  0  0
 38 39  1  0  0  0  0
 38108  1  0  0  0  0
 39 40  1  0  0  0  0
 39 42  2  0  0  0  0
 40 41  1  0  0  0  0
 41109  1  0  0  0  0
 41110  1  0  0  0  0
 41111  1  0  0  0  0
 42 43  1  0  0  0  0
 42112  1  0  0  0  0
 44 45  1  0  0  0  0
 44 49  1  0  0  0  0
 44113  1  6  0  0  0
 45 46  1  0  0  0  0
 45114  1  0  0  0  0
 45115  1  0  0  0  0
 46 47  1  0  0  0  0
 46 51  1  0  0  0  0
 46116  1  1  0  0  0
 47 48  1  0  0  0  0
 47117  1  0  0  0  0
 47118  1  0  0  0  0
 48 49  1  0  0  0  0
 48119  1  0  0  0  0
 48120  1  0  0  0  0
 49 50  1  0  0  0  0
 50 51  1  0  0  0  0
 50121  1  0  0  0  0
 50122  1  0  0  0  0
 51 52  1  0  0  0  0
 51123  1  1  0  0  0
 52 53  2  0  0  0  0
 52124  1  0  0  0  0
 53125  1  0  0  0  0
 53126  1  0  0  0  0
 54 55  2  0  0  0  0
 56 57  1  0  0  0  0
 56 67  2  0  0  0  0
 57 58  2  0  0  0  0
 57127  1  0  0  0  0
 58 59  1  0  0  0  0
 58128  1  0  0  0  0
 59 60  2  0  0  0  0
 60 61  1  0  0  0  0
 60 67  1  0  0  0  0
 61 62  2  0  0  0  0
 61129  1  0  0  0  0
 62 63  1  0  0  0  0
 62130  1  0  0  0  0
 63 64  1  0  0  0  0
 63 66  2  0  0  0  0
 64 65  1  0  0  0  0
 65131  1  0  0  0  0
 65132  1  0  0  0  0
 65133  1  0  0  0  0
 66 67  1  0  0  0  0
 66134  1  0  0  0  0
M  END
>  <Energy>
218.115

$$$$