141
 OpenBabel03292022003D

101106  0  0  0  0  0  0  0  0999 V2000
   13.1284    1.1023   22.9797 C   0  0  0  0  0  0  0  0  0  0  0  0
   13.7984    1.1264   21.7269 O   0  0  0  0  0  0  0  0  0  0  0  0
   12.8727    1.0730   20.6440 C   0  0  0  0  0  0  0  0  0  0  0  0
   13.6382    1.0986   19.3292 C   0  0  0  0  0  0  0  0  0  0  0  0
   12.7039    1.0440   18.2548 O   0  0  0  0  0  0  0  0  0  0  0  0
   13.3629    1.0683   16.9922 C   0  0  0  0  0  0  0  0  0  0  0  0
   12.3103    1.0104   15.8966 C   0  0  0  0  0  0  0  0  0  0  0  0
   12.9519    1.0348   14.6268 O   0  0  0  0  0  0  0  0  0  0  0  0
   11.9967    0.9851   13.5696 C   0  0  0  0  0  0  0  0  0  0  0  0
   12.7447    1.0232   12.2510 C   0  0  0  0  0  0  0  0  0  0  0  0
   11.8084    1.0056   11.1744 O   0  0  0  0  0  0  0  0  0  0  0  0
   12.3296    0.9118    9.9090 C   0  0  0  0  0  0  0  0  0  0  0  0
   13.7078    0.9925    9.6757 C   0  0  0  0  0  0  0  0  0  0  0  0
   14.2300    0.8395    8.3953 C   0  0  0  0  0  0  0  0  0  0  0  0
   13.3767    0.6380    7.3112 C   0  0  0  0  0  0  0  0  0  0  0  0
   12.0002    0.6116    7.5178 C   0  0  0  0  0  0  0  0  0  0  0  0
   11.4638    0.7367    8.8125 C   0  0  0  0  0  0  0  0  0  0  0  0
   10.0954    0.6546    8.8061 O   0  0  0  0  0  0  0  0  0  0  0  0
    9.4026    0.7086   10.0420 C   0  0  0  0  0  0  0  0  0  0  0  0
   14.0293    0.4225    5.9745 C   0  0  0  0  0  0  0  0  0  0  0  0
   15.2528   -0.4887    6.1869 C   0  0  0  0  0  0  0  0  0  0  0  0
   16.2395   -0.0179    7.1829 N   0  0  0  0  0  0  0  0  0  0  0  0
   17.4592    0.4927    6.5413 C   0  0  0  0  0  0  0  0  0  0  0  0
   18.5372    0.9218    7.5540 C   0  0  0  0  0  0  0  0  0  0  0  0
   19.7463    1.4617    6.8446 C   0  0  0  0  0  0  0  0  0  0  0  0
   19.8092    2.8157    6.5021 C   0  0  0  0  0  0  0  0  0  0  0  0
   20.8955    3.3088    5.7811 C   0  0  0  0  0  0  0  0  0  0  0  0
   21.9365    2.4679    5.3602 C   0  0  0  0  0  0  0  0  0  0  0  0
   23.0580    2.9854    4.5415 C   0  0  0  0  0  0  0  0  0  0  0  0
   24.3264    2.4136    4.6343 C   0  0  0  0  0  0  0  0  0  0  0  0
   25.3552    2.8399    3.8022 C   0  0  0  0  0  0  0  0  0  0  0  0
   25.1747    3.8743    2.8574 C   0  0  0  0  0  0  0  0  0  0  0  0
   26.3902    4.1810    2.0688 C   0  0  0  0  0  0  0  0  0  0  0  0
   27.4579    3.5952    2.2701 O   0  0  0  0  0  0  0  0  0  0  0  0
   26.2031    5.1162    1.1151 O   0  0  0  0  0  0  0  0  0  0  0  0
   27.3901    5.3373    0.3546 C   0  0  0  0  0  0  0  0  0  0  0  0
   23.9317    4.5384    2.7949 C   0  0  0  0  0  0  0  0  0  0  0  0
   23.6692    5.6558    1.9311 N   0  0  0  0  0  0  0  0  0  0  0  0
   22.9849    6.7878    2.3854 C   0  0  0  0  0  0  0  0  0  0  0  0
   22.5530    6.9002    3.5351 O   0  0  0  0  0  0  0  0  0  0  0  0
   22.8512    7.9866    1.4757 C   0  0  0  0  0  0  0  0  0  0  0  0
   22.6533    9.2192    2.0957 C   0  0  0  0  0  0  0  0  0  0  0  0
   22.3955   10.3380    1.3175 C   0  0  0  0  0  0  0  0  0  0  0  0
   22.4292   10.2291   -0.0684 C   0  0  0  0  0  0  0  0  0  0  0  0
   22.2789   11.3831   -0.8597 C   0  0  0  0  0  0  0  0  0  0  0  0
   22.4515   11.3130   -2.2353 C   0  0  0  0  0  0  0  0  0  0  0  0
   22.7041   10.0797   -2.8204 C   0  0  0  0  0  0  0  0  0  0  0  0
   22.7826    8.9192   -2.0278 C   0  0  0  0  0  0  0  0  0  0  0  0
   22.6838    8.9552   -0.6358 C   0  0  0  0  0  0  0  0  0  0  0  0
   22.8723    7.8341    0.1222 N   0  0  0  0  0  0  0  0  0  0  0  0
   22.8940    4.0548    3.6260 C   0  0  0  0  0  0  0  0  0  0  0  0
   21.8597    1.1100    5.7357 C   0  0  0  0  0  0  0  0  0  0  0  0
   20.7838    0.6124    6.4719 C   0  0  0  0  0  0  0  0  0  0  0  0
   15.7044    0.9630    8.1408 C   0  0  0  0  0  0  0  0  0  0  0  0
   13.8814    1.1446   23.7708 H   0  0  0  0  0  0  0  0  0  0  0  0
   12.5560    0.1762   23.0906 H   0  0  0  0  0  0  0  0  0  0  0  0
   12.4682    1.9690   23.0767 H   0  0  0  0  0  0  0  0  0  0  0  0
   12.1857    1.9271   20.6900 H   0  0  0  0  0  0  0  0  0  0  0  0
   12.2711    0.1576   20.7053 H   0  0  0  0  0  0  0  0  0  0  0  0
   14.3233    0.2439   19.2783 H   0  0  0  0  0  0  0  0  0  0  0  0
   14.2375    2.0141   19.2629 H   0  0  0  0  0  0  0  0  0  0  0  0
   14.0442    0.2136   16.9030 H   0  0  0  0  0  0  0  0  0  0  0  0
   13.9579    1.9841   16.8920 H   0  0  0  0  0  0  0  0  0  0  0  0
   11.6295    1.8651   15.9888 H   0  0  0  0  0  0  0  0  0  0  0  0
   11.7160    0.0950   15.9992 H   0  0  0  0  0  0  0  0  0  0  0  0
   11.3118    1.8381   13.6358 H   0  0  0  0  0  0  0  0  0  0  0  0
   11.4048    0.0646   13.6369 H   0  0  0  0  0  0  0  0  0  0  0  0
   13.4137    0.1528   12.2074 H   0  0  0  0  0  0  0  0  0  0  0  0
   13.3489    1.9394   12.2187 H   0  0  0  0  0  0  0  0  0  0  0  0
   14.4174    1.1659   10.4777 H   0  0  0  0  0  0  0  0  0  0  0  0
   11.3266    0.4650    6.6768 H   0  0  0  0  0  0  0  0  0  0  0  0
    8.3329    0.6356    9.8223 H   0  0  0  0  0  0  0  0  0  0  0  0
    9.5611    1.6662   10.5470 H   0  0  0  0  0  0  0  0  0  0  0  0
    9.6614   -0.1432   10.6790 H   0  0  0  0  0  0  0  0  0  0  0  0
   14.3327    1.3867    5.5489 H   0  0  0  0  0  0  0  0  0  0  0  0
   13.3341   -0.0549    5.2759 H   0  0  0  0  0  0  0  0  0  0  0  0
   15.7234   -0.7068    5.2206 H   0  0  0  0  0  0  0  0  0  0  0  0
   14.8891   -1.4594    6.5541 H   0  0  0  0  0  0  0  0  0  0  0  0
   17.2102    1.3339    5.8787 H   0  0  0  0  0  0  0  0  0  0  0  0
   17.8813   -0.2954    5.9038 H   0  0  0  0  0  0  0  0  0  0  0  0
   18.8195    0.0765    8.1949 H   0  0  0  0  0  0  0  0  0  0  0  0
   18.1720    1.7055    8.2278 H   0  0  0  0  0  0  0  0  0  0  0  0
   19.0114    3.4976    6.7868 H   0  0  0  0  0  0  0  0  0  0  0  0
   20.9171    4.3732    5.5518 H   0  0  0  0  0  0  0  0  0  0  0  0
   24.5388    1.6228    5.3505 H   0  0  0  0  0  0  0  0  0  0  0  0
   26.3240    2.3515    3.9030 H   0  0  0  0  0  0  0  0  0  0  0  0
   27.2125    6.1586   -0.3441 H   0  0  0  0  0  0  0  0  0  0  0  0
   27.6401    4.4368   -0.2182 H   0  0  0  0  0  0  0  0  0  0  0  0
   28.2275    5.6149    1.0064 H   0  0  0  0  0  0  0  0  0  0  0  0
   24.2662    5.7860    1.1179 H   0  0  0  0  0  0  0  0  0  0  0  0
   22.7071    9.3143    3.1758 H   0  0  0  0  0  0  0  0  0  0  0  0
   22.2089   11.2945    1.8002 H   0  0  0  0  0  0  0  0  0  0  0  0
   22.0791   12.3504   -0.4024 H   0  0  0  0  0  0  0  0  0  0  0  0
   22.4117   12.2187   -2.8385 H   0  0  0  0  0  0  0  0  0  0  0  0
   22.8613   10.0178   -3.8946 H   0  0  0  0  0  0  0  0  0  0  0  0
   22.9698    7.9672   -2.5175 H   0  0  0  0  0  0  0  0  0  0  0  0
   21.9076    4.5045    3.5259 H   0  0  0  0  0  0  0  0  0  0  0  0
   22.6321    0.4025    5.4403 H   0  0  0  0  0  0  0  0  0  0  0  0
   20.7547   -0.4443    6.7330 H   0  0  0  0  0  0  0  0  0  0  0  0
   15.8728    1.9931    7.7962 H   0  0  0  0  0  0  0  0  0  0  0  0
   16.2430    0.8388    9.0881 H   0  0  0  0  0  0  0  0  0  0  0  0
  1  2  1  0  0  0  0
  1 55  1  0  0  0  0
  1 56  1  0  0  0  0
  1 57  1  0  0  0  0
  2  3  1  0  0  0  0
  3  4  1  0  0  0  0
  3 58  1  0  0  0  0
  3 59  1  0  0  0  0
  4  5  1  0  0  0  0
  4 60  1  0  0  0  0
  4 61  1  0  0  0  0
  5  6  1  0  0  0  0
  6  7  1  0  0  0  0
  6 62  1  0  0  0  0
  6 63  1  0  0  0  0
  7  8  1  0  0  0  0
  7 64  1  0  0  0  0
  7 65  1  0  0  0  0
  8  9  1  0  0  0  0
  9 10  1  0  0  0  0
  9 66  1  0  0  0  0
  9 67  1  0  0  0  0
 10 11  1  0  0  0  0
 10 68  1  0  0  0  0
 10 69  1  0  0  0  0
 11 12  1  0  0  0  0
 12 13  1  0  0  0  0
 12 17  2  0  0  0  0
 13 14  2  0  0  0  0
 13 70  1  0  0  0  0
 14 15  1  0  0  0  0
 14 54  1  0  0  0  0
 15 16  2  0  0  0  0
 15 20  1  0  0  0  0
 16 17  1  0  0  0  0
 16 71  1  0  0  0  0
 17 18  1  0  0  0  0
 18 19  1  0  0  0  0
 19 72  1  0  0  0  0
 19 73  1  0  0  0  0
 19 74  1  0  0  0  0
 20 21  1  0  0  0  0
 20 75  1  0  0  0  0
 20 76  1  0  0  0  0
 21 22  1  0  0  0  0
 21 77  1  0  0  0  0
 21 78  1  0  0  0  0
 22 23  1  0  0  0  0
 22 54  1  0  0  0  0
 23 24  1  0  0  0  0
 23 79  1  0  0  0  0
 23 80  1  0  0  0  0
 24 25  1  0  0  0  0
 24 81  1  0  0  0  0
 24 82  1  0  0  0  0
 25 26  1  0  0  0  0
 25 53  2  0  0  0  0
 26 27  2  0  0  0  0
 26 83  1  0  0  0  0
 27 28  1  0  0  0  0
 27 84  1  0  0  0  0
 28 29  1  0  0  0  0
 28 52  2  0  0  0  0
 29 30  1  0  0  0  0
 29 51  2  0  0  0  0
 30 31  2  0  0  0  0
 30 85  1  0  0  0  0
 31 32  1  0  0  0  0
 31 86  1  0  0  0  0
 32 33  1  0  0  0  0
 32 37  2  0  0  0  0
 33 34  2  0  0  0  0
 33 35  1  0  0  0  0
 35 36  1  0  0  0  0
 36 87  1  0  0  0  0
 36 88  1  0  0  0  0
 36 89  1  0  0  0  0
 37 38  1  0  0  0  0
 37 51  1  0  0  0  0
 38 39  1  0  0  0  0
 38 90  1  0  0  0  0
 39 40  2  0  0  0  0
 39 41  1  0  0  0  0
 41 42  1  0  0  0  0
 41 50  2  0  0  0  0
 42 43  2  0  0  0  0
 42 91  1  0  0  0  0
 43 44  1  0  0  0  0
 43 92  1  0  0  0  0
 44 45  1  0  0  0  0
 44 49  2  0  0  0  0
 45 46  2  0  0  0  0
 45 93  1  0  0  0  0
 46 47  1  0  0  0  0
 46 94  1  0  0  0  0
 47 48  2  0  0  0  0
 47 95  1  0  0  0  0
 48 49  1  0  0  0  0
 48 96  1  0  0  0  0
 49 50  1  0  0  0  0
 51 97  1  0  0  0  0
 52 53  1  0  0  0  0
 52 98  1  0  0  0  0
 53 99  1  0  0  0  0
 54100  1  0  0  0  0
 54101  1  0  0  0  0
M  END
>  <Energy>
266.479

$$$$