90655522
  -OEChem-03242010103D

 46 48  0     0  0  0  0  0  0999 V2000
    5.2440   -1.4215   -0.1368 O   0  0  0  0  0  0  0  0  0  0  0  0
    2.5180   -2.4578   -0.1485 O   0  0  0  0  0  0  0  0  0  0  0  0
    6.6542    0.9705    0.0030 O   0  0  0  0  0  0  0  0  0  0  0  0
   -5.7937    2.1628   -0.4816 O   0  0  0  0  0  0  0  0  0  0  0  0
   -7.9060    0.5240    0.2802 O   0  0  0  0  0  0  0  0  0  0  0  0
    1.0286    0.8334    0.1204 C   0  0  0  0  0  0  0  0  0  0  0  0
    2.5138    1.0362    0.1013 C   0  0  0  0  0  0  0  0  0  0  0  0
    3.2086   -0.1710   -0.0005 C   0  0  0  0  0  0  0  0  0  0  0  0
    0.8915   -0.6642    0.0166 C   0  0  0  0  0  0  0  0  0  0  0  0
    2.2504   -1.2774   -0.0583 C   0  0  0  0  0  0  0  0  0  0  0  0
    4.5889   -0.2378   -0.0357 C   0  0  0  0  0  0  0  0  0  0  0  0
    3.2091    2.2313    0.1711 C   0  0  0  0  0  0  0  0  0  0  0  0
    5.2907    0.9663    0.0348 C   0  0  0  0  0  0  0  0  0  0  0  0
    4.6069    2.1906    0.1374 C   0  0  0  0  0  0  0  0  0  0  0  0
   -0.2317   -1.3835   -0.0074 C   0  0  0  0  0  0  0  0  0  0  0  0
   -1.5552   -0.8007    0.0644 C   0  0  0  0  0  0  0  0  0  0  0  0
   -2.6774   -1.5368    0.0393 C   0  0  0  0  0  0  0  0  0  0  0  0
   -4.0457   -0.9944    0.1012 C   0  0  0  0  0  0  0  0  0  0  0  0
    5.5317   -1.8988   -1.4526 C   0  0  0  0  0  0  0  0  0  0  0  0
    7.3302    0.8807    1.2549 C   0  0  0  0  0  0  0  0  0  0  0  0
   -4.2811    0.3420   -0.2220 C   0  0  0  0  0  0  0  0  0  0  0  0
   -5.1058   -1.8166    0.4833 C   0  0  0  0  0  0  0  0  0  0  0  0
   -5.5764    0.8561   -0.1634 C   0  0  0  0  0  0  0  0  0  0  0  0
   -6.4011   -1.3023    0.5422 C   0  0  0  0  0  0  0  0  0  0  0  0
   -6.6364    0.0340    0.2188 C   0  0  0  0  0  0  0  0  0  0  0  0
   -4.6562    2.9348   -0.8621 C   0  0  0  0  0  0  0  0  0  0  0  0
    0.6105    1.2068    1.0605 H   0  0  0  0  0  0  0  0  0  0  0  0
    0.5695    1.3350   -0.7373 H   0  0  0  0  0  0  0  0  0  0  0  0
    2.6884    3.1796    0.2502 H   0  0  0  0  0  0  0  0  0  0  0  0
    5.1668    3.1214    0.1904 H   0  0  0  0  0  0  0  0  0  0  0  0
   -0.1750   -2.4665   -0.0865 H   0  0  0  0  0  0  0  0  0  0  0  0
   -1.5962    0.2789    0.1629 H   0  0  0  0  0  0  0  0  0  0  0  0
   -2.6083   -2.6208   -0.0299 H   0  0  0  0  0  0  0  0  0  0  0  0
    5.9892   -2.8879   -1.3646 H   0  0  0  0  0  0  0  0  0  0  0  0
    6.2378   -1.2289   -1.9531 H   0  0  0  0  0  0  0  0  0  0  0  0
    4.6155   -1.9872   -2.0448 H   0  0  0  0  0  0  0  0  0  0  0  0
   -3.4465    0.9505   -0.5450 H   0  0  0  0  0  0  0  0  0  0  0  0
    7.0798    1.7375    1.8884 H   0  0  0  0  0  0  0  0  0  0  0  0
    7.0732   -0.0525    1.7660 H   0  0  0  0  0  0  0  0  0  0  0  0
    8.4068    0.8895    1.0645 H   0  0  0  0  0  0  0  0  0  0  0  0
   -4.9407   -2.8602    0.7399 H   0  0  0  0  0  0  0  0  0  0  0  0
   -7.2178   -1.9537    0.8418 H   0  0  0  0  0  0  0  0  0  0  0  0
   -8.5067   -0.1869    0.5627 H   0  0  0  0  0  0  0  0  0  0  0  0
   -5.0125    3.9489   -1.0716 H   0  0  0  0  0  0  0  0  0  0  0  0
   -4.2055    2.5616   -1.7881 H   0  0  0  0  0  0  0  0  0  0  0  0
   -3.9309    3.0182   -0.0453 H   0  0  0  0  0  0  0  0  0  0  0  0
  1 11  1  0  0  0  0
  1 19  1  0  0  0  0
  2 10  2  0  0  0  0
  3 13  1  0  0  0  0
  3 20  1  0  0  0  0
  4 23  1  0  0  0  0
  4 26  1  0  0  0  0
  5 25  1  0  0  0  0
  5 43  1  0  0  0  0
  6  7  1  0  0  0  0
  6  9  1  0  0  0  0
  6 27  1  0  0  0  0
  6 28  1  0  0  0  0
  7  8  2  0  0  0  0
  7 12  1  0  0  0  0
  8 10  1  0  0  0  0
  8 11  1  0  0  0  0
  9 10  1  0  0  0  0
  9 15  2  0  0  0  0
 11 13  2  0  0  0  0
 12 14  2  0  0  0  0
 12 29  1  0  0  0  0
 13 14  1  0  0  0  0
 14 30  1  0  0  0  0
 15 16  1  0  0  0  0
 15 31  1  0  0  0  0
 16 17  2  0  0  0  0
 16 32  1  0  0  0  0
 17 18  1  0  0  0  0
 17 33  1  0  0  0  0
 18 21  2  0  0  0  0
 18 22  1  0  0  0  0
 19 34  1  0  0  0  0
 19 35  1  0  0  0  0
 19 36  1  0  0  0  0
 20 38  1  0  0  0  0
 20 39  1  0  0  0  0
 20 40  1  0  0  0  0
 21 23  1  0  0  0  0
 21 37  1  0  0  0  0
 22 24  2  0  0  0  0
 22 41  1  0  0  0  0
 23 25  2  0  0  0  0
 24 25  1  0  0  0  0
 24 42  1  0  0  0  0
 26 44  1  0  0  0  0
 26 45  1  0  0  0  0
 26 46  1  0  0  0  0
M  END
> <PUBCHEM_COMPOUND_CID>
90655522

> <PUBCHEM_CONFORMER_RMSD>
0.8

> <PUBCHEM_CONFORMER_DIVERSEORDER>
3
7
11
2
5
12
4
1
9
6
8
10

> <PUBCHEM_MMFF94_PARTIAL_CHARGES>
35
1 -0.36
10 0.47
11 0.08
12 -0.15
13 0.08
14 -0.15
15 -0.15
16 -0.15
17 -0.18
18 0.03
19 0.28
2 -0.57
20 0.28
21 -0.15
22 -0.15
23 0.08
24 -0.15
25 0.08
26 0.28
29 0.15
3 -0.36
30 0.15
31 0.15
32 0.15
33 0.15
37 0.15
4 -0.36
41 0.15
42 0.15
43 0.45
5 -0.53
6 0.28
7 -0.14
8 0.09
9 -0.12

> <PUBCHEM_EFFECTIVE_ROTOR_COUNT>
5.2

> <PUBCHEM_PHARMACOPHORE_FEATURES>
8
1 1 acceptor
1 2 acceptor
1 3 acceptor
1 4 acceptor
1 5 donor
5 6 7 8 9 10 rings
6 18 21 22 23 24 25 rings
6 7 8 11 12 13 14 rings

> <PUBCHEM_HEAVY_ATOM_COUNT>
26

> <PUBCHEM_ATOM_DEF_STEREO_COUNT>
0

> <PUBCHEM_ATOM_UDEF_STEREO_COUNT>
0

> <PUBCHEM_BOND_DEF_STEREO_COUNT>
2

> <PUBCHEM_BOND_UDEF_STEREO_COUNT>
0

> <PUBCHEM_ISOTOPIC_ATOM_COUNT>
0

> <PUBCHEM_COMPONENT_COUNT>
1

> <PUBCHEM_CACTVS_TAUTO_COUNT>
7

> <PUBCHEM_CONFORMER_ID>
05674B2200000003

> <PUBCHEM_MMFF94_ENERGY>
102.3832

> <PUBCHEM_FEATURE_SELFOVERLAP>
40.686

> <PUBCHEM_SHAPE_FINGERPRINT>
10 15 18186801421721940216
100830 39 18335417946310061557
10411042 1 17979921506646496166
10835480 77 18338230471647845917
11315181 36 12035443944352282287
11719270 70 18343299263096350466
11991303 11 17417807387798095583
12107183 9 17683794416186449003
12236239 1 17775288274410099071
13073987 5 18186800249618050067
13167372 99 18410855451559436832
13402501 40 18409728474170054461
13533116 47 17060625469411511966
13785724 45 17905603307626577786
14170010 4 18342740737048310610
14251764 18 18186516639899784962
14341114 176 18408890654962420597
14933364 13 18410014342839844931
15183329 4 18273221893135014457
15419008 145 18114729465867762728
15716309 27 12396300370353149443
17844677 252 18409737257330279791
18608769 82 18337112380134076483
19611394 137 17897458413856645971
20157964 124 18201723959686086926
20281389 69 18334012774723008425
21033648 29 18341322404943640992
21150785 3 15123509237220869081
21279426 13 18339644443036423252
21315759 40 16225761943232295131
21315763 129 18335700602059490937
21315763 28 18409446994718996003
21792934 111 18271799096058038698
23559900 14 18342171211204761865
24771293 8 18056181696176116336
2838139 119 18341042012404423981
29717793 49 17560809809644490614
3004659 81 18408605846521434714
335352 9 18412267238266180742
3545911 37 18410294714141887827
4073 2 18041284382180521650
4093350 32 17632578232609681734
4144715 1 18335994081807774499
4340502 62 16805595998096160330
5104073 3 18114463366889231235
59755656 215 18408325462614409022
59755656 520 17458901647512661939
9995097 60 18411418405929157711
9996256 80 18411417349826398607

> <PUBCHEM_SHAPE_MULTIPOLES>
505.72
21.81
2.6
0.82
11.32
0.85
0.06
4.77
-1.76
0.33
0.47
-0.59
-0.04
2.17

> <PUBCHEM_SHAPE_SELFOVERLAP>
1097.507

> <PUBCHEM_SHAPE_VOLUME>
279.8

> <PUBCHEM_COORDINATE_TYPE>
2
5
10

$$$$