23
 OpenBabel03302012423D

 54 55  0  0  0  0  0  0  0  0999 V2000
    4.7907   -2.8695    4.7786 C   0  0  0  0  0  0  0  0  0  0  0  0
    3.7872   -2.3156    4.0022 O   0  0  0  0  0  0  0  0  0  0  0  0
    3.8770   -1.1976    3.2318 C   0  0  0  0  0  0  0  0  0  0  0  0
    5.0627   -0.4442    3.2354 C   0  0  0  0  0  0  0  0  0  0  0  0
    5.2102    0.7118    2.4574 C   0  0  0  0  0  0  0  0  0  0  0  0
    6.4650    1.5220    2.4672 C   0  0  0  0  0  0  0  0  0  0  0  0
    6.6305    2.3586    1.5892 O   0  0  0  0  0  0  0  0  0  0  0  0
    7.4344    1.3181    3.4076 N   0  0  0  0  0  0  0  0  0  0  0  0
    8.6573    2.0393    3.4702 C   0  0  0  0  0  0  0  0  0  0  0  0
    8.6574    3.4299    3.2644 C   0  0  0  0  0  0  0  0  0  0  0  0
    9.8270    4.1689    3.3799 C   0  0  0  0  0  0  0  0  0  0  0  0
   11.0439    3.5354    3.6698 C   0  0  0  0  0  0  0  0  0  0  0  0
   12.3032    4.3212    3.7964 C   0  0  0  0  0  0  0  0  0  0  0  0
   13.5472    3.7595    3.4623 C   0  0  0  0  0  0  0  0  0  0  0  0
   14.7124    4.5072    3.5960 C   0  0  0  0  0  0  0  0  0  0  0  0
   14.6416    5.8033    4.0982 C   0  0  0  0  0  0  0  0  0  0  0  0
   13.4377    6.3520    4.4405 N   0  3  0  0  0  0  0  0  0  0  0  0
   13.3596    7.6952    5.0064 C   0  0  0  0  0  0  0  0  0  0  0  0
   12.2768    5.6430    4.2790 C   0  0  0  0  0  0  0  0  0  0  0  0
   11.0541    2.1433    3.8586 C   0  0  0  0  0  0  0  0  0  0  0  0
    9.8784    1.3755    3.7850 C   0  0  0  0  0  0  0  0  0  0  0  0
    9.9716   -0.0480    3.9935 N   0  3  0  0  0  0  0  0  0  0  0  0
    9.0447   -0.7706    3.8038 O   0  0  0  0  0  0  0  0  0  0  0  0
   11.1266   -0.5911    4.3187 O   0  5  0  0  0  0  0  0  0  0  0  0
    4.1429    1.1102    1.6506 C   0  0  0  0  0  0  0  0  0  0  0  0
    2.9405    0.4052    1.6270 C   0  0  0  0  0  0  0  0  0  0  0  0
    1.9680    0.9299    0.8292 O   0  0  0  0  0  0  0  0  0  0  0  0
    0.6678    0.5055    0.6649 C   0  0  0  0  0  0  0  0  0  0  0  0
    2.7859   -0.7710    2.4176 C   0  0  0  0  0  0  0  0  0  0  0  0
    1.5974   -1.4329    2.3226 O   0  0  0  0  0  0  0  0  0  0  0  0
    1.0691   -2.5335    2.9700 C   0  0  0  0  0  0  0  0  0  0  0  0
    2.2311   -1.6310   -2.3908 I   0  5  0  0  0  0  0  0  0  0  0  0
    4.3929   -3.7489    5.3236 H   0  0  0  0  0  0  0  0  0  0  0  0
    5.1576   -2.1381    5.5319 H   0  0  0  0  0  0  0  0  0  0  0  0
    5.6322   -3.2026    4.1331 H   0  0  0  0  0  0  0  0  0  0  0  0
    5.8725   -0.7914    3.8440 H   0  0  0  0  0  0  0  0  0  0  0  0
    7.2980    0.6151    4.1359 H   0  0  0  0  0  0  0  0  0  0  0  0
    7.7382    3.9607    3.0483 H   0  0  0  0  0  0  0  0  0  0  0  0
    9.7730    5.2387    3.2213 H   0  0  0  0  0  0  0  0  0  0  0  0
   13.6239    2.7533    3.0685 H   0  0  0  0  0  0  0  0  0  0  0  0
   15.6668    4.0780    3.3264 H   0  0  0  0  0  0  0  0  0  0  0  0
   15.5555    6.3708    4.2154 H   0  0  0  0  0  0  0  0  0  0  0  0
   14.3659    8.1633    5.0919 H   0  0  0  0  0  0  0  0  0  0  0  0
   12.9190    7.6445    6.0251 H   0  0  0  0  0  0  0  0  0  0  0  0
   12.7214    8.3425    4.3676 H   0  0  0  0  0  0  0  0  0  0  0  0
   11.3410    6.0937    4.5740 H   0  0  0  0  0  0  0  0  0  0  0  0
   11.9848    1.6490    4.0967 H   0  0  0  0  0  0  0  0  0  0  0  0
    4.2316    2.0000    1.0387 H   0  0  0  0  0  0  0  0  0  0  0  0
    0.1490    1.2065   -0.0206 H   0  0  0  0  0  0  0  0  0  0  0  0
    0.1335    0.5184    1.6388 H   0  0  0  0  0  0  0  0  0  0  0  0
    0.6439   -0.5064    0.2122 H   0  0  0  0  0  0  0  0  0  0  0  0
    0.0798   -2.2556    3.3858 H   0  0  0  0  0  0  0  0  0  0  0  0
    1.6657   -2.9237    3.8027 H   0  0  0  0  0  0  0  0  0  0  0  0
    0.9188   -3.3418    2.2255 H   0  0  0  0  0  0  0  0  0  0  0  0
  1  2  1  0  0  0  0
  1 33  1  0  0  0  0
  1 34  1  0  0  0  0
  1 35  1  0  0  0  0
  2  3  1  0  0  0  0
  3  4  1  0  0  0  0
  3 29  2  0  0  0  0
  4  5  2  0  0  0  0
  4 36  1  0  0  0  0
  5  6  1  0  0  0  0
  5 25  1  0  0  0  0
  6  7  2  0  0  0  0
  6  8  1  0  0  0  0
  8  9  1  0  0  0  0
  8 37  1  0  0  0  0
  9 10  1  0  0  0  0
  9 21  2  0  0  0  0
 10 11  2  0  0  0  0
 10 38  1  0  0  0  0
 11 12  1  0  0  0  0
 11 39  1  0  0  0  0
 12 13  1  0  0  0  0
 12 20  2  0  0  0  0
 13 14  1  0  0  0  0
 13 19  2  0  0  0  0
 14 15  2  0  0  0  0
 14 40  1  0  0  0  0
 15 16  1  0  0  0  0
 15 41  1  0  0  0  0
 16 17  2  0  0  0  0
 16 42  1  0  0  0  0
 17 18  1  0  0  0  0
 17 19  1  0  0  0  0
 18 43  1  0  0  0  0
 18 44  1  0  0  0  0
 18 45  1  0  0  0  0
 19 46  1  0  0  0  0
 20 21  1  0  0  0  0
 20 47  1  0  0  0  0
 21 22  1  0  0  0  0
 22 23  2  0  0  0  0
 22 24  1  0  0  0  0
 25 26  2  0  0  0  0
 25 48  1  0  0  0  0
 26 27  1  0  0  0  0
 26 29  1  0  0  0  0
 27 28  1  0  0  0  0
 28 49  1  0  0  0  0
 28 50  1  0  0  0  0
 28 51  1  0  0  0  0
 29 30  1  0  0  0  0
 30 31  1  0  0  0  0
 31 52  1  0  0  0  0
 31 53  1  0  0  0  0
 31 54  1  0  0  0  0
M  CHG  4  17   1  22   1  24  -1  32  -1
M  END
$$$$