56945202
  -OEChem-03242010103D

 46 48  0     0  0  0  0  0  0999 V2000
    6.2501    2.2372    0.5272 O   0  0  0  0  0  0  0  0  0  0  0  0
    5.1395   -2.2880   -0.5101 O   0  0  0  0  0  0  0  0  0  0  0  0
    1.3216    2.2169   -0.5914 O   0  0  0  0  0  0  0  0  0  0  0  0
   -0.6579   -3.0870   -0.2687 O   0  5  0  0  0  0  0  0  0  0  0  0
   -0.6261   -2.4883    1.8431 O   0  0  0  0  0  0  0  0  0  0  0  0
    0.6760    0.0275   -0.0299 N   0  0  0  0  0  0  0  0  0  0  0  0
   -0.8973   -2.2594    0.6413 N   0  3  0  0  0  0  0  0  0  0  0  0
   -3.5038    0.2880   -0.0412 C   0  0  0  0  0  0  0  0  0  0  0  0
   -0.7208    0.0954   -0.0291 C   0  0  0  0  0  0  0  0  0  0  0  0
   -1.4982   -1.0156    0.2976 C   0  0  0  0  0  0  0  0  0  0  0  0
   -2.8896   -0.9194    0.2916 C   0  0  0  0  0  0  0  0  0  0  0  0
   -4.9471    0.3883   -0.0487 C   0  0  0  0  0  0  0  0  0  0  0  0
   -2.7264    1.3991   -0.3679 C   0  0  0  0  0  0  0  0  0  0  0  0
   -1.3348    1.3029   -0.3619 C   0  0  0  0  0  0  0  0  0  0  0  0
    3.0200    0.6777   -0.1939 C   0  0  0  0  0  0  0  0  0  0  0  0
    1.5862    1.0552   -0.3012 C   0  0  0  0  0  0  0  0  0  0  0  0
   -5.6257    0.7666    1.1097 C   0  0  0  0  0  0  0  0  0  0  0  0
   -5.6599    0.1068   -1.2141 C   0  0  0  0  0  0  0  0  0  0  0  0
    3.4117   -0.6442   -0.4056 C   0  0  0  0  0  0  0  0  0  0  0  0
    3.9739    1.6460    0.1194 C   0  0  0  0  0  0  0  0  0  0  0  0
    5.3195    1.2923    0.2208 C   0  0  0  0  0  0  0  0  0  0  0  0
    4.7572   -0.9978   -0.3042 C   0  0  0  0  0  0  0  0  0  0  0  0
    5.7110   -0.0296    0.0091 C   0  0  0  0  0  0  0  0  0  0  0  0
   -7.0173    0.8635    1.1027 C   0  0  0  0  0  0  0  0  0  0  0  0
   -7.0513    0.2037   -1.2212 C   0  0  0  0  0  0  0  0  0  0  0  0
   -7.7301    0.5820   -0.0627 C   0  0  0  0  0  0  0  0  0  0  0  0
    7.6076    1.8066    0.6151 C   0  0  0  0  0  0  0  0  0  0  0  0
    4.1123   -3.2265   -0.8259 C   0  0  0  0  0  0  0  0  0  0  0  0
   -3.4950   -1.7876    0.5468 H   0  0  0  0  0  0  0  0  0  0  0  0
   -3.1906    2.3469   -0.6311 H   0  0  0  0  0  0  0  0  0  0  0  0
   -0.8136    2.2087   -0.6336 H   0  0  0  0  0  0  0  0  0  0  0  0
    1.0502   -0.8690    0.2629 H   0  0  0  0  0  0  0  0  0  0  0  0
    2.6626   -1.3682   -0.6995 H   0  0  0  0  0  0  0  0  0  0  0  0
    3.6834    2.6794    0.2924 H   0  0  0  0  0  0  0  0  0  0  0  0
   -5.0855    0.9895    2.0268 H   0  0  0  0  0  0  0  0  0  0  0  0
   -5.1465   -0.1895   -2.1258 H   0  0  0  0  0  0  0  0  0  0  0  0
    6.7403   -0.3668    0.0737 H   0  0  0  0  0  0  0  0  0  0  0  0
   -7.5458    1.1580    2.0047 H   0  0  0  0  0  0  0  0  0  0  0  0
   -7.6065   -0.0154   -2.1286 H   0  0  0  0  0  0  0  0  0  0  0  0
   -8.8135    0.6574   -0.0682 H   0  0  0  0  0  0  0  0  0  0  0  0
    8.2097    2.6860    0.8662 H   0  0  0  0  0  0  0  0  0  0  0  0
    7.9744    1.4327   -0.3468 H   0  0  0  0  0  0  0  0  0  0  0  0
    7.7484    1.0817    1.4240 H   0  0  0  0  0  0  0  0  0  0  0  0
    4.5935   -4.2033   -0.9420 H   0  0  0  0  0  0  0  0  0  0  0  0
    3.6337   -2.9930   -1.7831 H   0  0  0  0  0  0  0  0  0  0  0  0
    3.3884   -3.3246   -0.0095 H   0  0  0  0  0  0  0  0  0  0  0  0
  1 21  1  0  0  0  0
  1 27  1  0  0  0  0
  2 22  1  0  0  0  0
  2 28  1  0  0  0  0
  3 16  2  0  0  0  0
  4  7  1  0  0  0  0
  5  7  2  0  0  0  0
  6  9  1  0  0  0  0
  6 16  1  0  0  0  0
  6 32  1  0  0  0  0
  7 10  1  0  0  0  0
  8 11  2  0  0  0  0
  8 12  1  0  0  0  0
  8 13  1  0  0  0  0
  9 10  2  0  0  0  0
  9 14  1  0  0  0  0
 10 11  1  0  0  0  0
 11 29  1  0  0  0  0
 12 17  2  0  0  0  0
 12 18  1  0  0  0  0
 13 14  2  0  0  0  0
 13 30  1  0  0  0  0
 14 31  1  0  0  0  0
 15 16  1  0  0  0  0
 15 19  2  0  0  0  0
 15 20  1  0  0  0  0
 17 24  1  0  0  0  0
 17 35  1  0  0  0  0
 18 25  2  0  0  0  0
 18 36  1  0  0  0  0
 19 22  1  0  0  0  0
 19 33  1  0  0  0  0
 20 21  2  0  0  0  0
 20 34  1  0  0  0  0
 21 23  1  0  0  0  0
 22 23  2  0  0  0  0
 23 37  1  0  0  0  0
 24 26  2  0  0  0  0
 24 38  1  0  0  0  0
 25 26  1  0  0  0  0
 25 39  1  0  0  0  0
 26 40  1  0  0  0  0
 27 41  1  0  0  0  0
 27 42  1  0  0  0  0
 27 43  1  0  0  0  0
 28 44  1  0  0  0  0
 28 45  1  0  0  0  0
 28 46  1  0  0  0  0
M  CHG  2   4  -1   7   1
M  END
> <PUBCHEM_COMPOUND_CID>
56945202

> <PUBCHEM_CONFORMER_RMSD>
0.8

> <PUBCHEM_CONFORMER_DIVERSEORDER>
1
16
12
4
14
7
17
15
5
13
19
6
11
2
8
10
9
3
18

> <PUBCHEM_MMFF94_PARTIAL_CHARGES>
38
1 -0.36
10 0.13
11 -0.15
13 -0.15
14 -0.15
15 0.09
16 0.54
17 -0.15
18 -0.15
19 -0.15
2 -0.36
20 -0.15
21 0.08
22 0.08
23 -0.15
24 -0.15
25 -0.15
26 -0.15
27 0.28
28 0.28
29 0.15
3 -0.57
30 0.15
31 0.15
32 0.37
33 0.15
34 0.15
35 0.15
36 0.15
37 0.15
38 0.15
39 0.15
4 -0.52
40 0.15
5 -0.52
6 -0.55
7 0.91
9 0.12

> <PUBCHEM_EFFECTIVE_ROTOR_COUNT>
7

> <PUBCHEM_PHARMACOPHORE_FEATURES>
10
1 1 acceptor
1 2 acceptor
1 3 acceptor
1 4 acceptor
1 4 anion
1 5 acceptor
1 6 donor
6 12 17 18 24 25 26 rings
6 15 19 20 21 22 23 rings
6 8 9 10 11 13 14 rings

> <PUBCHEM_HEAVY_ATOM_COUNT>
28

> <PUBCHEM_ATOM_DEF_STEREO_COUNT>
0

> <PUBCHEM_ATOM_UDEF_STEREO_COUNT>
0

> <PUBCHEM_BOND_DEF_STEREO_COUNT>
0

> <PUBCHEM_BOND_UDEF_STEREO_COUNT>
0

> <PUBCHEM_ISOTOPIC_ATOM_COUNT>
0

> <PUBCHEM_COMPONENT_COUNT>
1

> <PUBCHEM_CACTVS_TAUTO_COUNT>
2

> <PUBCHEM_CONFORMER_ID>
0364EA3200000001

> <PUBCHEM_MMFF94_ENERGY>
117.7592

> <PUBCHEM_FEATURE_SELFOVERLAP>
50.83

> <PUBCHEM_SHAPE_FINGERPRINT>
10 15 17749106729600123984
10299344 5 17775566433735075149
10411042 1 17909835332867711006
10595046 47 18060420192371468841
10835480 77 18340767156389151792
10906281 52 18269292277337978980
11315181 36 17775284985403958753
11578080 2 17344893338431011850
12236239 1 18060419097792962413
12838862 33 18189317087188834684
13533116 47 18130787828737409114
1361 2 18201159841038033118
14251764 18 18131913766840521513
14725015 67 18190458247758350738
14849402 71 18131072675274978201
14856354 85 14490480785913553833
15183329 4 18341895177677106771
1577012 14 17989489606843112265
15849732 13 17458344156166878221
19315958 150 18410859880298589740
20157964 124 18343019986984113734
21130935 74 18343587322062617107
21236236 1 18336828714734684939
21279426 13 18191584155774703565
21521721 280 18413393124855370915
21781051 124 17532682133711908403
21859007 373 17386549302490432589
22224240 67 18260268560392858937
23081809 10 17703790302010436877
23536379 177 17489870419311610909
23559900 14 18341045336856966584
23569943 247 18122909729114870619
249057 3 18187646951065666524
255183 451 17772764780156880030
3004659 81 18260551087583991294
3178227 256 18186812387464692961
335352 9 18407762547104797612
3633792 109 18342740676191002296
404807 14 17122847729311091366
4073 2 18337393850130030314
4093350 32 17489874813041971662
4403749 210 17982162633634294680
5758199 1 18413673509168877137
59755656 215 17967814895343451295
6669772 16 18334855000308988979

> <PUBCHEM_SHAPE_MULTIPOLES>
536.92
20.76
2.68
1.01
7.06
2.13
0.14
-7.95
0.31
-4.53
0.1
1.09
0.21
0.96

> <PUBCHEM_SHAPE_SELFOVERLAP>
1169.571

> <PUBCHEM_SHAPE_VOLUME>
291.9

> <PUBCHEM_COORDINATE_TYPE>
2
5
10

$$$$