3152
  -OEChem-03242010103D

 57 60  0     1  0  0  0  0  0999 V2000
    2.2815   -2.1288    1.9543 O   0  0  0  0  0  0  0  0  0  0  0  0
    6.3453    1.8191   -1.0693 O   0  0  0  0  0  0  0  0  0  0  0  0
    7.0636   -0.1212    0.7814 O   0  0  0  0  0  0  0  0  0  0  0  0
   -3.9852   -0.7888   -0.9485 N   0  0  0  0  0  0  0  0  0  0  0  0
   -1.0653   -0.9860   -0.7739 C   0  0  0  0  0  0  0  0  0  0  0  0
    0.1794   -1.6134   -0.1526 C   0  0  0  0  0  0  0  0  0  0  0  0
    1.0453   -0.5699    0.5272 C   0  0  2  0  0  0  0  0  0  0  0  0
   -1.9203   -2.0426   -1.4816 C   0  0  0  0  0  0  0  0  0  0  0  0
   -1.9058   -0.2646    0.2852 C   0  0  0  0  0  0  0  0  0  0  0  0
   -3.2186   -1.4382   -2.0203 C   0  0  0  0  0  0  0  0  0  0  0  0
   -3.2049    0.2806   -0.3116 C   0  0  0  0  0  0  0  0  0  0  0  0
    1.6075    0.4743   -0.4648 C   0  0  0  0  0  0  0  0  0  0  0  0
    2.2700   -1.2024    1.1640 C   0  0  0  0  0  0  0  0  0  0  0  0
    3.0843    0.4442   -0.2292 C   0  0  0  0  0  0  0  0  0  0  0  0
    3.4659   -0.5208    0.6944 C   0  0  0  0  0  0  0  0  0  0  0  0
   -5.2467   -0.2616   -1.4685 C   0  0  0  0  0  0  0  0  0  0  0  0
    4.0475    1.2382   -0.8305 C   0  0  0  0  0  0  0  0  0  0  0  0
    4.7824   -0.7390    1.0561 C   0  0  0  0  0  0  0  0  0  0  0  0
   -6.0955    0.3384   -0.3793 C   0  0  0  0  0  0  0  0  0  0  0  0
    5.3885    1.0429   -0.4833 C   0  0  0  0  0  0  0  0  0  0  0  0
    5.7529    0.0609    0.4531 C   0  0  0  0  0  0  0  0  0  0  0  0
   -7.0048   -0.4623    0.2979 C   0  0  0  0  0  0  0  0  0  0  0  0
   -5.9570    1.6838   -0.0677 C   0  0  0  0  0  0  0  0  0  0  0  0
   -7.7912    0.0937    1.3069 C   0  0  0  0  0  0  0  0  0  0  0  0
   -6.7433    2.2397    0.9415 C   0  0  0  0  0  0  0  0  0  0  0  0
   -7.6603    1.4447    1.6288 C   0  0  0  0  0  0  0  0  0  0  0  0
    6.6825    3.0370   -0.4101 C   0  0  0  0  0  0  0  0  0  0  0  0
    7.8022   -1.0578    0.0004 C   0  0  0  0  0  0  0  0  0  0  0  0
   -0.7692   -0.2505   -1.5325 H   0  0  0  0  0  0  0  0  0  0  0  0
   -0.1127   -2.3808    0.5764 H   0  0  0  0  0  0  0  0  0  0  0  0
    0.7573   -2.1382   -0.9249 H   0  0  0  0  0  0  0  0  0  0  0  0
    0.5239   -0.0630    1.3468 H   0  0  0  0  0  0  0  0  0  0  0  0
   -1.3558   -2.4867   -2.3102 H   0  0  0  0  0  0  0  0  0  0  0  0
   -2.1604   -2.8585   -0.7872 H   0  0  0  0  0  0  0  0  0  0  0  0
   -2.1390   -0.9471    1.1129 H   0  0  0  0  0  0  0  0  0  0  0  0
   -1.3639    0.5869    0.7090 H   0  0  0  0  0  0  0  0  0  0  0  0
   -2.9877   -0.7261   -2.8236 H   0  0  0  0  0  0  0  0  0  0  0  0
   -3.8117   -2.2475   -2.4633 H   0  0  0  0  0  0  0  0  0  0  0  0
   -2.9767    1.0858   -1.0222 H   0  0  0  0  0  0  0  0  0  0  0  0
   -3.7303    0.7160    0.5420 H   0  0  0  0  0  0  0  0  0  0  0  0
    1.4081    0.2187   -1.5105 H   0  0  0  0  0  0  0  0  0  0  0  0
    1.1969    1.4672   -0.2534 H   0  0  0  0  0  0  0  0  0  0  0  0
   -5.0744    0.4867   -2.2550 H   0  0  0  0  0  0  0  0  0  0  0  0
   -5.8186   -1.0675   -1.9482 H   0  0  0  0  0  0  0  0  0  0  0  0
    3.7669    1.9939   -1.5576 H   0  0  0  0  0  0  0  0  0  0  0  0
    5.0522   -1.4997    1.7804 H   0  0  0  0  0  0  0  0  0  0  0  0
   -7.1135   -1.5160    0.0569 H   0  0  0  0  0  0  0  0  0  0  0  0
   -5.2589    2.3202   -0.6046 H   0  0  0  0  0  0  0  0  0  0  0  0
   -8.5052   -0.5252    1.8423 H   0  0  0  0  0  0  0  0  0  0  0  0
   -6.6441    3.2924    1.1896 H   0  0  0  0  0  0  0  0  0  0  0  0
   -8.2732    1.8777    2.4141 H   0  0  0  0  0  0  0  0  0  0  0  0
    7.4613    3.5375   -0.9919 H   0  0  0  0  0  0  0  0  0  0  0  0
    5.8106    3.6962   -0.3526 H   0  0  0  0  0  0  0  0  0  0  0  0
    7.0699    2.8380    0.5942 H   0  0  0  0  0  0  0  0  0  0  0  0
    8.8283   -1.0842    0.3771 H   0  0  0  0  0  0  0  0  0  0  0  0
    7.3697   -2.0591    0.0922 H   0  0  0  0  0  0  0  0  0  0  0  0
    7.8232   -0.7523   -1.0505 H   0  0  0  0  0  0  0  0  0  0  0  0
  1 13  2  0  0  0  0
  2 20  1  0  0  0  0
  2 27  1  0  0  0  0
  3 21  1  0  0  0  0
  3 28  1  0  0  0  0
  4 10  1  0  0  0  0
  4 11  1  0  0  0  0
  4 16  1  0  0  0  0
  5  6  1  0  0  0  0
  5  8  1  0  0  0  0
  5  9  1  0  0  0  0
  5 29  1  0  0  0  0
  6  7  1  0  0  0  0
  6 30  1  0  0  0  0
  6 31  1  0  0  0  0
  7 12  1  0  0  0  0
  7 13  1  0  0  0  0
  7 32  1  0  0  0  0
  8 10  1  0  0  0  0
  8 33  1  0  0  0  0
  8 34  1  0  0  0  0
  9 11  1  0  0  0  0
  9 35  1  0  0  0  0
  9 36  1  0  0  0  0
 10 37  1  0  0  0  0
 10 38  1  0  0  0  0
 11 39  1  0  0  0  0
 11 40  1  0  0  0  0
 12 14  1  0  0  0  0
 12 41  1  0  0  0  0
 12 42  1  0  0  0  0
 13 15  1  0  0  0  0
 14 15  1  0  0  0  0
 14 17  2  0  0  0  0
 15 18  2  0  0  0  0
 16 19  1  0  0  0  0
 16 43  1  0  0  0  0
 16 44  1  0  0  0  0
 17 20  1  0  0  0  0
 17 45  1  0  0  0  0
 18 21  1  0  0  0  0
 18 46  1  0  0  0  0
 19 22  2  0  0  0  0
 19 23  1  0  0  0  0
 20 21  2  0  0  0  0
 22 24  1  0  0  0  0
 22 47  1  0  0  0  0
 23 25  2  0  0  0  0
 23 48  1  0  0  0  0
 24 26  2  0  0  0  0
 24 49  1  0  0  0  0
 25 26  1  0  0  0  0
 25 50  1  0  0  0  0
 26 51  1  0  0  0  0
 27 52  1  0  0  0  0
 27 53  1  0  0  0  0
 27 54  1  0  0  0  0
 28 55  1  0  0  0  0
 28 56  1  0  0  0  0
 28 57  1  0  0  0  0
M  END
> <PUBCHEM_COMPOUND_CID>
3152

> <PUBCHEM_CONFORMER_RMSD>
0.8

> <PUBCHEM_CONFORMER_DIVERSEORDER>
2
46
11
22
30
28
9
45
14
33
43
37
15
34
6
44
36
40
21
29
32
19
23
16
26
38
39
17
8
42
41
18
25
31
10
5
12
20
35
27
24
1
7
3
13
4

> <PUBCHEM_MMFF94_PARTIAL_CHARGES>
31
1 -0.57
10 0.27
11 0.27
12 0.14
13 0.42
14 -0.14
15 0.09
16 0.41
17 -0.15
18 -0.15
19 -0.14
2 -0.36
20 0.08
21 0.08
22 -0.15
23 -0.15
24 -0.15
25 -0.15
26 -0.15
27 0.28
28 0.28
3 -0.36
4 -0.81
45 0.15
46 0.15
47 0.15
48 0.15
49 0.15
50 0.15
51 0.15
7 0.06

> <PUBCHEM_EFFECTIVE_ROTOR_COUNT>
7.6

> <PUBCHEM_PHARMACOPHORE_FEATURES>
8
1 1 acceptor
1 2 acceptor
1 3 acceptor
1 4 cation
5 7 12 13 14 15 rings
6 14 15 17 18 20 21 rings
6 19 22 23 24 25 26 rings
6 4 5 8 9 10 11 rings

> <PUBCHEM_HEAVY_ATOM_COUNT>
28

> <PUBCHEM_ATOM_DEF_STEREO_COUNT>
0

> <PUBCHEM_ATOM_UDEF_STEREO_COUNT>
1

> <PUBCHEM_BOND_DEF_STEREO_COUNT>
0

> <PUBCHEM_BOND_UDEF_STEREO_COUNT>
0

> <PUBCHEM_ISOTOPIC_ATOM_COUNT>
0

> <PUBCHEM_COMPONENT_COUNT>
1

> <PUBCHEM_CACTVS_TAUTO_COUNT>
2

> <PUBCHEM_CONFORMER_ID>
00000C5000000002

> <PUBCHEM_MMFF94_ENERGY>
92.851

> <PUBCHEM_FEATURE_SELFOVERLAP>
40.681

> <PUBCHEM_SHAPE_FINGERPRINT>
10 15 15357697530747287860
10369192 42 17418376888109106645
10670039 82 16415201131715842067
10674148 151 18202560675434889330
10906281 52 18413393150287843799
11115154 58 18343868810673166776
11408170 253 17846509131652514897
11456790 92 17749374967899208992
11475781 23 16559028290146227558
11646440 116 16805040722368315828
11796584 16 16415191326110839566
11963148 33 12251900412708025985
12236239 1 18410287047361618070
12596602 18 17895193260778439097
12730499 353 17022615356507254034
12741549 16 15123504775879231402
13177829 20 17894635864127930515
13782708 43 15358247174649446515
14251764 18 18335421287899710293
14849402 71 18261397809937290973
14856354 85 18273213136804721055
15183329 4 18272643559110074333
15685185 35 17971202662457506092
15728490 51 11602831202629577344
1577012 14 18341048605416366508
15840311 113 18259989288460551956
20105231 36 17749391425971333106
21033648 29 16128074724693030978
21223535 225 14333142845079760395
21623969 137 16950281785018845699
21756936 100 18060414725748695463
22122407 14 18335996341060883721
22224240 67 16732983141194008803
22864921 47 12179837346797093609
23081809 10 18200861925321625735
23389318 12 8646479722396365194
23522609 53 18411989082613484965
23559900 14 15123498246758741915
2747138 104 16081087073609716509
29717793 49 18343581859417728142
3009799 131 14836403644432514326
3014063 24 9799421013912425860
3178227 256 17458061556683981546
3383291 50 13768222592834195697
3633792 109 18130793374363166454
3663271 9 18186522073613559755
397830 11 16081095913063919797
4073 2 17603871151727943290
4093350 32 18271524200428497458
4340502 62 17095242505667655187
445580 37 17346607357137441601
5104073 3 17604419829879216058
5385378 56 18131072580611403239
57035037 87 17417801890788127720
5758199 1 18114183063784334072
5911458 16 18413394237146795001
59682541 35 14923948968123198612
5969126 39 11024114235418782531
59755656 520 18186515531656460387
7226269 152 17060618885426529425
9689198 14 18412272743849517669

> <PUBCHEM_SHAPE_MULTIPOLES>
553.64
25.15
2.18
1.5
7.72
0.91
-0.08
12.86
-4.47
-0.65
0.3
0.86
-0.42
-3.49

> <PUBCHEM_SHAPE_SELFOVERLAP>
1190.006

> <PUBCHEM_SHAPE_VOLUME>
307.5

> <PUBCHEM_COORDINATE_TYPE>
2
5
10

$$$$