4494
  -OEChem-03242010103D

 47 48  0     1  0  0  0  0  0999 V2000
   -1.4085   -2.4694    0.1113 O   0  0  0  0  0  0  0  0  0  0  0  0
    1.5024    2.2269   -1.5810 O   0  0  0  0  0  0  0  0  0  0  0  0
   -0.6297   -2.7412   -2.0518 O   0  0  0  0  0  0  0  0  0  0  0  0
    3.0608    2.5962    0.0906 O   0  0  0  0  0  0  0  0  0  0  0  0
   -4.2815    3.0592    0.6380 O   0  5  0  0  0  0  0  0  0  0  0  0
   -3.4323    2.6550   -1.3503 O   0  0  0  0  0  0  0  0  0  0  0  0
    2.8693   -1.6504    0.5139 N   0  0  0  0  0  0  0  0  0  0  0  0
   -3.4099    2.5427   -0.1013 N   0  3  0  0  0  0  0  0  0  0  0  0
    5.4055    0.5487    0.9249 N   0  0  0  0  0  0  0  0  0  0  0  0
    0.7108   -0.1391   -0.5604 C   0  0  2  0  0  0  0  0  0  0  0  0
    0.6799   -1.6663   -0.3943 C   0  0  0  0  0  0  0  0  0  0  0  0
    2.0789    0.4633   -0.2321 C   0  0  0  0  0  0  0  0  0  0  0  0
   -0.3477    0.4919    0.2969 C   0  0  0  0  0  0  0  0  0  0  0  0
    1.7228   -2.3403    0.1463 C   0  0  0  0  0  0  0  0  0  0  0  0
    3.0535   -0.3042    0.2914 C   0  0  0  0  0  0  0  0  0  0  0  0
   -0.5168   -2.3571   -0.9025 C   0  0  0  0  0  0  0  0  0  0  0  0
   -1.3743    1.2159   -0.2984 C   0  0  0  0  0  0  0  0  0  0  0  0
   -0.2901    0.3470    1.6781 C   0  0  0  0  0  0  0  0  0  0  0  0
    1.7686   -3.8241    0.3923 C   0  0  0  0  0  0  0  0  0  0  0  0
    2.2912    1.8883   -0.5326 C   0  0  0  0  0  0  0  0  0  0  0  0
   -2.3571    1.8028    0.4987 C   0  0  0  0  0  0  0  0  0  0  0  0
   -2.6343   -3.1256   -0.2289 C   0  0  0  0  0  0  0  0  0  0  0  0
   -1.2727    0.9340    2.4753 C   0  0  0  0  0  0  0  0  0  0  0  0
   -2.3063    1.6618    1.8855 C   0  0  0  0  0  0  0  0  0  0  0  0
    4.3483    0.1652    0.6402 C   0  0  0  0  0  0  0  0  0  0  0  0
   -3.5177   -3.2077    1.0066 C   0  0  0  0  0  0  0  0  0  0  0  0
   -3.3112   -2.3671   -1.3603 C   0  0  0  0  0  0  0  0  0  0  0  0
    1.5978    3.5934   -1.9961 C   0  0  0  0  0  0  0  0  0  0  0  0
    0.5060    0.0414   -1.6252 H   0  0  0  0  0  0  0  0  0  0  0  0
    3.6336   -2.1864    0.9097 H   0  0  0  0  0  0  0  0  0  0  0  0
   -1.3958    1.3112   -1.3812 H   0  0  0  0  0  0  0  0  0  0  0  0
    0.5034   -0.2151    2.1622 H   0  0  0  0  0  0  0  0  0  0  0  0
    2.5912   -4.2755   -0.1726 H   0  0  0  0  0  0  0  0  0  0  0  0
    0.8473   -4.3346    0.0981 H   0  0  0  0  0  0  0  0  0  0  0  0
    1.9297   -4.0251    1.4569 H   0  0  0  0  0  0  0  0  0  0  0  0
   -2.4086   -4.1504   -0.5500 H   0  0  0  0  0  0  0  0  0  0  0  0
   -1.2331    0.8237    3.5551 H   0  0  0  0  0  0  0  0  0  0  0  0
   -3.0543    2.1045    2.5383 H   0  0  0  0  0  0  0  0  0  0  0  0
   -4.4553   -3.7304    0.7953 H   0  0  0  0  0  0  0  0  0  0  0  0
   -2.9968   -3.7353    1.8128 H   0  0  0  0  0  0  0  0  0  0  0  0
   -3.7501   -2.2062    1.3858 H   0  0  0  0  0  0  0  0  0  0  0  0
   -4.3652   -2.6562   -1.4403 H   0  0  0  0  0  0  0  0  0  0  0  0
   -2.8745   -2.5718   -2.3405 H   0  0  0  0  0  0  0  0  0  0  0  0
   -3.2670   -1.2846   -1.1983 H   0  0  0  0  0  0  0  0  0  0  0  0
    1.2910    4.2580   -1.1828 H   0  0  0  0  0  0  0  0  0  0  0  0
    0.9210    3.7390   -2.8422 H   0  0  0  0  0  0  0  0  0  0  0  0
    2.6183    3.8214   -2.3185 H   0  0  0  0  0  0  0  0  0  0  0  0
  1 16  1  0  0  0  0
  1 22  1  0  0  0  0
  2 20  1  0  0  0  0
  2 28  1  0  0  0  0
  3 16  2  0  0  0  0
  4 20  2  0  0  0  0
  5  8  1  0  0  0  0
  6  8  2  0  0  0  0
  7 14  1  0  0  0  0
  7 15  1  0  0  0  0
  7 30  1  0  0  0  0
  8 21  1  0  0  0  0
  9 25  3  0  0  0  0
 10 11  1  0  0  0  0
 10 12  1  0  0  0  0
 10 13  1  0  0  0  0
 10 29  1  0  0  0  0
 11 14  2  0  0  0  0
 11 16  1  0  0  0  0
 12 15  2  0  0  0  0
 12 20  1  0  0  0  0
 13 17  2  0  0  0  0
 13 18  1  0  0  0  0
 14 19  1  0  0  0  0
 15 25  1  0  0  0  0
 17 21  1  0  0  0  0
 17 31  1  0  0  0  0
 18 23  2  0  0  0  0
 18 32  1  0  0  0  0
 19 33  1  0  0  0  0
 19 34  1  0  0  0  0
 19 35  1  0  0  0  0
 21 24  2  0  0  0  0
 22 26  1  0  0  0  0
 22 27  1  0  0  0  0
 22 36  1  0  0  0  0
 23 24  1  0  0  0  0
 23 37  1  0  0  0  0
 24 38  1  0  0  0  0
 26 39  1  0  0  0  0
 26 40  1  0  0  0  0
 26 41  1  0  0  0  0
 27 42  1  0  0  0  0
 27 43  1  0  0  0  0
 27 44  1  0  0  0  0
 28 45  1  0  0  0  0
 28 46  1  0  0  0  0
 28 47  1  0  0  0  0
M  CHG  2   5  -1   8   1
M  END
> <PUBCHEM_COMPOUND_CID>
4494

> <PUBCHEM_CONFORMER_RMSD>
0.8

> <PUBCHEM_CONFORMER_DIVERSEORDER>
7
64
57
31
66
32
58
62
13
35
11
63
53
4
20
61
29
52
49
16
37
28
33
43
22
30
55
65
60
50
59
8
47
27
45
39
36
24
48
67
54
15
21
19
56
26
40
5
34
51
23
38
42
44
12
14
46
17
25
2
9
18
6
41
1
10
3

> <PUBCHEM_MMFF94_PARTIAL_CHARGES>
31
1 -0.43
10 0.42
11 -0.12
12 -0.12
13 -0.14
14 -0.04
15 0.16
16 0.71
17 -0.15
18 -0.15
19 0.14
2 -0.43
20 0.71
21 0.13
22 0.28
23 -0.15
24 -0.15
25 0.49
28 0.28
3 -0.57
30 0.4
31 0.15
32 0.15
37 0.15
38 0.15
4 -0.57
5 -0.52
6 -0.52
7 -0.6
8 0.91
9 -0.56

> <PUBCHEM_EFFECTIVE_ROTOR_COUNT>
7.4

> <PUBCHEM_PHARMACOPHORE_FEATURES>
11
1 3 acceptor
1 4 acceptor
1 5 acceptor
1 5 anion
1 6 acceptor
1 7 cation
1 7 donor
1 9 acceptor
3 22 26 27 hydrophobe
6 13 17 18 21 23 24 rings
6 7 10 11 12 14 15 rings

> <PUBCHEM_HEAVY_ATOM_COUNT>
28

> <PUBCHEM_ATOM_DEF_STEREO_COUNT>
0

> <PUBCHEM_ATOM_UDEF_STEREO_COUNT>
1

> <PUBCHEM_BOND_DEF_STEREO_COUNT>
0

> <PUBCHEM_BOND_UDEF_STEREO_COUNT>
0

> <PUBCHEM_ISOTOPIC_ATOM_COUNT>
0

> <PUBCHEM_COMPONENT_COUNT>
1

> <PUBCHEM_CACTVS_TAUTO_COUNT>
3

> <PUBCHEM_CONFORMER_ID>
0000118E00000007

> <PUBCHEM_MMFF94_ENERGY>
76.0324

> <PUBCHEM_FEATURE_SELFOVERLAP>
55.902

> <PUBCHEM_SHAPE_FINGERPRINT>
104564 63 18271805769614601783
1100329 8 18051123701410893106
11370993 70 18269269054734405585
11582403 64 17170654611372400701
12035759 4 17903655312128447900
12156800 1 17910633744984461227
12403259 327 16951141577068091832
12422481 6 18196964186718698475
12788726 201 18052829327412823988
13140716 1 18338224952689042090
13583140 156 17895205346188526299
13911987 19 17471609553677068111
14142880 1 18338780291706628798
14178342 30 18410283710351351170
16728300 4 16163544664884013322
16752209 62 18272085058494981470
17138139 8 17555973045678604621
20642791 105 18339631338896043808
20642791 239 16604928816092568533
23419403 2 16112807924184318766
23558518 356 18261116334653800194
23559900 14 17260759963290203028
283562 15 18268700783222052842
3493558 16 18042393802803816855
350125 39 18267307710806026280
352729 6 18130512929086778667
4340502 62 18200881648011824601
4409770 3 18201144546859445103
7164475 11 18269558406638815854
7226269 152 17692808611753237768
81228 2 17478643516080405832

> <PUBCHEM_SHAPE_MULTIPOLES>
526.07
6.91
5.13
1.73
2.61
0.47
-0.14
-1.2
-1.03
-3.47
1.31
-0.64
-0.78
-1.51

> <PUBCHEM_SHAPE_SELFOVERLAP>
1121.799

> <PUBCHEM_SHAPE_VOLUME>
290.6

> <PUBCHEM_COORDINATE_TYPE>
2
5
10

$$$$