118708526
  -OEChem-03242010103D

 50 52  0     0  0  0  0  0  0999 V2000
    1.5628   -1.6998   -2.0554 F   0  0  0  0  0  0  0  0  0  0  0  0
   -5.1889   -2.2329    0.6058 O   0  0  0  0  0  0  0  0  0  0  0  0
   -5.1286    2.4322   -0.4773 O   0  0  0  0  0  0  0  0  0  0  0  0
   -6.5384    0.0758   -0.1169 O   0  0  0  0  0  0  0  0  0  0  0  0
   -0.5865    0.4451    1.7563 O   0  0  0  0  0  0  0  0  0  0  0  0
   -0.0823   -0.0977   -0.4956 N   0  0  0  0  0  0  0  0  0  0  0  0
    7.5036    1.2754    0.6809 N   0  0  0  0  0  0  0  0  0  0  0  0
    1.3048   -0.0682   -0.3482 C   0  0  0  0  0  0  0  0  0  0  0  0
   -2.4211    0.1474    0.4225 C   0  0  0  0  0  0  0  0  0  0  0  0
   -0.9587    0.1728    0.6156 C   0  0  0  0  0  0  0  0  0  0  0  0
    4.0779   -0.0060   -0.0502 C   0  0  0  0  0  0  0  0  0  0  0  0
    2.1102   -0.8831   -1.1438 C   0  0  0  0  0  0  0  0  0  0  0  0
    1.8860    0.7779    0.5963 C   0  0  0  0  0  0  0  0  0  0  0  0
   -3.0972    1.3119    0.0586 C   0  0  0  0  0  0  0  0  0  0  0  0
   -3.1278   -1.0413    0.6054 C   0  0  0  0  0  0  0  0  0  0  0  0
    3.4968   -0.8519   -0.9948 C   0  0  0  0  0  0  0  0  0  0  0  0
    3.2726    0.8089    0.7454 C   0  0  0  0  0  0  0  0  0  0  0  0
   -4.5106   -1.0655    0.4240 C   0  0  0  0  0  0  0  0  0  0  0  0
   -4.4800    1.2878   -0.1228 C   0  0  0  0  0  0  0  0  0  0  0  0
   -5.1867    0.0990    0.0597 C   0  0  0  0  0  0  0  0  0  0  0  0
   -0.7178   -0.4118   -1.8151 C   0  0  0  0  0  0  0  0  0  0  0  0
    5.5158    0.0255    0.1051 C   0  0  0  0  0  0  0  0  0  0  0  0
    6.2897   -1.1004   -0.1533 C   0  0  0  0  0  0  0  0  0  0  0  0
    6.1653    1.1784    0.5162 C   0  0  0  0  0  0  0  0  0  0  0  0
    7.6698   -1.0399    0.0049 C   0  0  0  0  0  0  0  0  0  0  0  0
   -5.6771   -2.5005    1.9190 C   0  0  0  0  0  0  0  0  0  0  0  0
   -4.3318    3.6034   -0.6436 C   0  0  0  0  0  0  0  0  0  0  0  0
   -7.0447   -0.8030   -1.1190 C   0  0  0  0  0  0  0  0  0  0  0  0
    8.2229    0.1607    0.4202 C   0  0  0  0  0  0  0  0  0  0  0  0
    1.3184    1.4826    1.1938 H   0  0  0  0  0  0  0  0  0  0  0  0
   -2.4925    2.2040   -0.0681 H   0  0  0  0  0  0  0  0  0  0  0  0
   -2.6033   -1.9510    0.8883 H   0  0  0  0  0  0  0  0  0  0  0  0
    4.0860   -1.4839   -1.6533 H   0  0  0  0  0  0  0  0  0  0  0  0
    3.6817    1.4739    1.5012 H   0  0  0  0  0  0  0  0  0  0  0  0
   -0.9090   -1.4880   -1.8569 H   0  0  0  0  0  0  0  0  0  0  0  0
   -1.6575    0.1256   -1.9497 H   0  0  0  0  0  0  0  0  0  0  0  0
   -0.0570   -0.1031   -2.6309 H   0  0  0  0  0  0  0  0  0  0  0  0
    5.8570   -2.0508   -0.4528 H   0  0  0  0  0  0  0  0  0  0  0  0
    5.6458    2.1110    0.7127 H   0  0  0  0  0  0  0  0  0  0  0  0
    8.2926   -1.9066   -0.1845 H   0  0  0  0  0  0  0  0  0  0  0  0
   -6.2065   -3.4570    1.8990 H   0  0  0  0  0  0  0  0  0  0  0  0
   -6.3759   -1.7205    2.2375 H   0  0  0  0  0  0  0  0  0  0  0  0
   -4.8469   -2.5743    2.6285 H   0  0  0  0  0  0  0  0  0  0  0  0
   -5.0093    4.4162   -0.9253 H   0  0  0  0  0  0  0  0  0  0  0  0
   -3.6140    3.4905   -1.4633 H   0  0  0  0  0  0  0  0  0  0  0  0
   -3.8514    3.9017    0.2946 H   0  0  0  0  0  0  0  0  0  0  0  0
   -7.9213   -0.3290   -1.5704 H   0  0  0  0  0  0  0  0  0  0  0  0
   -7.3664   -1.7443   -0.6649 H   0  0  0  0  0  0  0  0  0  0  0  0
   -6.3133   -0.9925   -1.9125 H   0  0  0  0  0  0  0  0  0  0  0  0
    9.2943    0.2595    0.5602 H   0  0  0  0  0  0  0  0  0  0  0  0
  1 12  1  0  0  0  0
  2 18  1  0  0  0  0
  2 26  1  0  0  0  0
  3 19  1  0  0  0  0
  3 27  1  0  0  0  0
  4 20  1  0  0  0  0
  4 28  1  0  0  0  0
  5 10  2  0  0  0  0
  6  8  1  0  0  0  0
  6 10  1  0  0  0  0
  6 21  1  0  0  0  0
  7 24  1  0  0  0  0
  7 29  2  0  0  0  0
  8 12  2  0  0  0  0
  8 13  1  0  0  0  0
  9 10  1  0  0  0  0
  9 14  2  0  0  0  0
  9 15  1  0  0  0  0
 11 16  2  0  0  0  0
 11 17  1  0  0  0  0
 11 22  1  0  0  0  0
 12 16  1  0  0  0  0
 13 17  2  0  0  0  0
 13 30  1  0  0  0  0
 14 19  1  0  0  0  0
 14 31  1  0  0  0  0
 15 18  2  0  0  0  0
 15 32  1  0  0  0  0
 16 33  1  0  0  0  0
 17 34  1  0  0  0  0
 18 20  1  0  0  0  0
 19 20  2  0  0  0  0
 21 35  1  0  0  0  0
 21 36  1  0  0  0  0
 21 37  1  0  0  0  0
 22 23  1  0  0  0  0
 22 24  2  0  0  0  0
 23 25  2  0  0  0  0
 23 38  1  0  0  0  0
 24 39  1  0  0  0  0
 25 29  1  0  0  0  0
 25 40  1  0  0  0  0
 26 41  1  0  0  0  0
 26 42  1  0  0  0  0
 26 43  1  0  0  0  0
 27 44  1  0  0  0  0
 27 45  1  0  0  0  0
 27 46  1  0  0  0  0
 28 47  1  0  0  0  0
 28 48  1  0  0  0  0
 28 49  1  0  0  0  0
 29 50  1  0  0  0  0
M  END
> <PUBCHEM_COMPOUND_CID>
118708526

> <PUBCHEM_CONFORMER_RMSD>
0.8

> <PUBCHEM_CONFORMER_DIVERSEORDER>
16
76
79
32
72
62
109
96
67
120
117
68
115
1
98
56
23
44
112
119
73
47
75
105
12
90
18
60
114
92
122
102
55
84
86
88
53
40
71
41
91
121
2
113
61
100
118
57
81
83
50
5
59
80
37
99
58
106
33
101
104
11
108
116
97
15
89
39
30
95
64
87
110
82
70
85
3
9
65
17
34
77
22
107
38
66
10
24
43
78
49
42
54
21
48
29
45
4
103
20
51
69
111
36
94
27
19
93
35
26
52
8
14
25
31
63
28
46
7
13
74
6

> <PUBCHEM_MMFF94_PARTIAL_CHARGES>
36
1 -0.19
10 0.54
12 0.19
13 -0.15
14 -0.15
15 -0.15
16 -0.15
17 -0.15
18 0.08
19 0.08
2 -0.36
20 0.08
21 0.3
23 -0.15
24 0.16
25 -0.15
26 0.28
27 0.28
28 0.28
29 0.16
3 -0.36
30 0.15
31 0.15
32 0.15
33 0.15
34 0.15
38 0.15
39 0.15
4 -0.36
40 0.15
5 -0.57
50 0.15
6 -0.48
7 -0.62
8 0.12
9 0.09

> <PUBCHEM_EFFECTIVE_ROTOR_COUNT>
7

> <PUBCHEM_PHARMACOPHORE_FEATURES>
8
1 2 acceptor
1 3 acceptor
1 4 acceptor
1 5 acceptor
1 7 acceptor
6 7 22 23 24 25 29 rings
6 8 11 12 13 16 17 rings
6 9 14 15 18 19 20 rings

> <PUBCHEM_HEAVY_ATOM_COUNT>
29

> <PUBCHEM_ATOM_DEF_STEREO_COUNT>
0

> <PUBCHEM_ATOM_UDEF_STEREO_COUNT>
0

> <PUBCHEM_BOND_DEF_STEREO_COUNT>
0

> <PUBCHEM_BOND_UDEF_STEREO_COUNT>
0

> <PUBCHEM_ISOTOPIC_ATOM_COUNT>
0

> <PUBCHEM_COMPONENT_COUNT>
1

> <PUBCHEM_CACTVS_TAUTO_COUNT>
1

> <PUBCHEM_CONFORMER_ID>
0713592E00000010

> <PUBCHEM_MMFF94_ENERGY>
141.6191

> <PUBCHEM_FEATURE_SELFOVERLAP>
40.608

> <PUBCHEM_SHAPE_FINGERPRINT>
10 15 18272650177854987726
10299344 5 12103846757043569252
10411042 1 18045506563762813659
10835480 77 18200593583969875101
11135926 11 16845576387769417342
11315181 36 17749393684759431817
11434127 23 18339354159588574501
11646440 116 16630528440790310442
11719270 70 17988922241779621902
11991303 11 17631729482510171142
12516196 113 17385723604218486420
12596602 18 18408039607329849352
13885169 127 18334011671037856200
13911987 19 16988554663779732237
13947920 75 17458341953027905969
14068700 675 15936406771175651598
14849402 71 14404891549164391034
14933364 13 18410855465214673304
15131766 46 18048034366770701596
15183329 4 16298386860022532562
15419008 47 18343578551280963689
15461852 350 17168146758197998063
15849732 13 18272651264561062620
17686467 74 17822575035447404836
19489759 90 18333452036778023433
19611394 137 18338241586284340441
21033648 29 17988065738726181569
21130935 74 18186800258614238354
21315763 129 18335142007403757732
21623969 137 17775573039204917878
21792961 116 18059577954191340968
22224240 67 17275101747948706406
23081809 10 17023195928774410958
23559900 14 18340769230404259219
23569917 315 17489595533089813238
23569943 247 14691196564475321820
23576562 1 12180423416411945154
24771293 8 13973670742856897874
249057 25 17822303387292512516
3178227 256 17775292698542678722
335352 9 17561083631965243996
3418910 222 18262533592326803764
4073 2 18409453557149215803
4325135 7 17704068512743268805
4340502 62 18334012788194024954
5104073 3 18057902263325402058
57527295 17 17416391075704536057
5758199 1 15339125645245583470
59682541 35 17560798878789432322
59755656 520 18340477941707567134
6376802 90 18266745679970071741
6691757 9 17168153325361269553

> <PUBCHEM_SHAPE_MULTIPOLES>
556.09
22.47
2.2
1.31
21.03
1.15
-0.19
-1.51
2.48
-4.53
0.12
-0.63
-0.54
2.28

> <PUBCHEM_SHAPE_SELFOVERLAP>
1207.667

> <PUBCHEM_SHAPE_VOLUME>
306.5

> <PUBCHEM_COORDINATE_TYPE>
2
5
10

$$$$