57393522
  -OEChem-03242010103D

 44 47  0     0  0  0  0  0  0999 V2000
    6.7795   -0.2837   -1.2560 Cl  0  0  0  0  0  0  0  0  0  0  0  0
    0.7926   -2.0911    0.9721 O   0  0  0  0  0  0  0  0  0  0  0  0
   -5.1663    1.7601   -1.2235 O   0  0  0  0  0  0  0  0  0  0  0  0
   -3.0586    1.9323   -2.0492 O   0  0  0  0  0  0  0  0  0  0  0  0
    0.1216    0.0155    0.4874 N   0  0  0  0  0  0  0  0  0  0  0  0
   -1.9066    0.9787    0.3638 C   0  0  0  0  0  0  0  0  0  0  0  0
   -1.2345   -0.2177    0.3581 C   0  0  0  0  0  0  0  0  0  0  0  0
   -0.9474    2.0075    0.5124 C   0  0  0  0  0  0  0  0  0  0  0  0
    0.3124    1.3977    0.5922 C   0  0  0  0  0  0  0  0  0  0  0  0
   -3.3692    1.1687    0.2418 C   0  0  0  0  0  0  0  0  0  0  0  0
   -1.8376   -1.5316    0.2308 C   0  0  0  0  0  0  0  0  0  0  0  0
   -1.0457    3.4127    0.5872 C   0  0  0  0  0  0  0  0  0  0  0  0
    1.4782    2.1745    0.7355 C   0  0  0  0  0  0  0  0  0  0  0  0
    1.1127   -0.9887    0.5398 C   0  0  0  0  0  0  0  0  0  0  0  0
    0.1118    4.1792    0.7355 C   0  0  0  0  0  0  0  0  0  0  0  0
    1.3560    3.5660    0.8072 C   0  0  0  0  0  0  0  0  0  0  0  0
    2.5097   -0.8143    0.0975 C   0  0  0  0  0  0  0  0  0  0  0  0
   -2.0192   -2.0964   -1.0315 C   0  0  0  0  0  0  0  0  0  0  0  0
   -2.2355   -2.2296    1.3709 C   0  0  0  0  0  0  0  0  0  0  0  0
   -3.8143    1.6572   -1.1276 C   0  0  0  0  0  0  0  0  0  0  0  0
   -2.5988   -3.3594   -1.1539 C   0  0  0  0  0  0  0  0  0  0  0  0
   -2.8151   -3.4925    1.2487 C   0  0  0  0  0  0  0  0  0  0  0  0
    2.7841   -0.4723   -1.2267 C   0  0  0  0  0  0  0  0  0  0  0  0
    3.5557   -0.9923    1.0028 C   0  0  0  0  0  0  0  0  0  0  0  0
   -2.9968   -4.0573   -0.0137 C   0  0  0  0  0  0  0  0  0  0  0  0
    4.1044   -0.3084   -1.6456 C   0  0  0  0  0  0  0  0  0  0  0  0
    4.8761   -0.8284    0.5841 C   0  0  0  0  0  0  0  0  0  0  0  0
    5.1505   -0.4865   -0.7401 C   0  0  0  0  0  0  0  0  0  0  0  0
   -3.7026    1.9091    0.9792 H   0  0  0  0  0  0  0  0  0  0  0  0
   -3.9090    0.2387    0.4511 H   0  0  0  0  0  0  0  0  0  0  0  0
   -2.0122    3.9061    0.5297 H   0  0  0  0  0  0  0  0  0  0  0  0
    2.4633    1.7323    0.8145 H   0  0  0  0  0  0  0  0  0  0  0  0
    0.0371    5.2615    0.7940 H   0  0  0  0  0  0  0  0  0  0  0  0
    2.2490    4.1745    0.9250 H   0  0  0  0  0  0  0  0  0  0  0  0
   -1.7140   -1.5648   -1.9298 H   0  0  0  0  0  0  0  0  0  0  0  0
   -2.1009   -1.8031    2.3621 H   0  0  0  0  0  0  0  0  0  0  0  0
   -2.7401   -3.7992   -2.1368 H   0  0  0  0  0  0  0  0  0  0  0  0
   -3.1249   -4.0361    2.1364 H   0  0  0  0  0  0  0  0  0  0  0  0
    1.9780   -0.3336   -1.9426 H   0  0  0  0  0  0  0  0  0  0  0  0
    3.3541   -1.2565    2.0376 H   0  0  0  0  0  0  0  0  0  0  0  0
   -3.4480   -5.0406   -0.1088 H   0  0  0  0  0  0  0  0  0  0  0  0
    4.3032   -0.0422   -2.6806 H   0  0  0  0  0  0  0  0  0  0  0  0
    5.6810   -0.9696    1.3008 H   0  0  0  0  0  0  0  0  0  0  0  0
   -5.4465    2.0761   -2.1089 H   0  0  0  0  0  0  0  0  0  0  0  0
  1 28  1  0  0  0  0
  2 14  2  0  0  0  0
  3 20  1  0  0  0  0
  3 44  1  0  0  0  0
  4 20  2  0  0  0  0
  5  7  1  0  0  0  0
  5  9  1  0  0  0  0
  5 14  1  0  0  0  0
  6  7  2  0  0  0  0
  6  8  1  0  0  0  0
  6 10  1  0  0  0  0
  7 11  1  0  0  0  0
  8  9  1  0  0  0  0
  8 12  2  0  0  0  0
  9 13  2  0  0  0  0
 10 20  1  0  0  0  0
 10 29  1  0  0  0  0
 10 30  1  0  0  0  0
 11 18  2  0  0  0  0
 11 19  1  0  0  0  0
 12 15  1  0  0  0  0
 12 31  1  0  0  0  0
 13 16  1  0  0  0  0
 13 32  1  0  0  0  0
 14 17  1  0  0  0  0
 15 16  2  0  0  0  0
 15 33  1  0  0  0  0
 16 34  1  0  0  0  0
 17 23  2  0  0  0  0
 17 24  1  0  0  0  0
 18 21  1  0  0  0  0
 18 35  1  0  0  0  0
 19 22  2  0  0  0  0
 19 36  1  0  0  0  0
 21 25  2  0  0  0  0
 21 37  1  0  0  0  0
 22 25  1  0  0  0  0
 22 38  1  0  0  0  0
 23 26  1  0  0  0  0
 23 39  1  0  0  0  0
 24 27  2  0  0  0  0
 24 40  1  0  0  0  0
 25 41  1  0  0  0  0
 26 28  2  0  0  0  0
 26 42  1  0  0  0  0
 27 28  1  0  0  0  0
 27 43  1  0  0  0  0
M  END
> <PUBCHEM_COMPOUND_CID>
57393522

> <PUBCHEM_CONFORMER_RMSD>
0.8

> <PUBCHEM_CONFORMER_DIVERSEORDER>
1
2
18
5
4
19
7
8
20
14
17
13
3
9
11
16
10
15
12
6

> <PUBCHEM_MMFF94_PARTIAL_CHARGES>
41
1 -0.18
10 0.24
11 0.05
12 -0.15
13 -0.15
14 0.49
15 -0.15
16 -0.15
17 0.09
18 -0.15
19 -0.15
2 -0.57
20 0.66
21 -0.15
22 -0.15
23 -0.15
24 -0.15
25 -0.15
26 -0.15
27 -0.15
28 0.18
3 -0.65
31 0.15
32 0.15
33 0.15
34 0.15
35 0.15
36 0.15
37 0.15
38 0.15
39 0.15
4 -0.57
40 0.15
41 0.15
42 0.15
43 0.15
44 0.5
5 0.29
6 -0.18
7 -0.2
9 -0.15

> <PUBCHEM_EFFECTIVE_ROTOR_COUNT>
5

> <PUBCHEM_PHARMACOPHORE_FEATURES>
8
1 2 acceptor
1 3 acceptor
1 4 acceptor
3 3 4 20 anion
5 5 6 7 8 9 rings
6 11 18 19 21 22 25 rings
6 17 23 24 26 27 28 rings
6 8 9 12 13 15 16 rings

> <PUBCHEM_HEAVY_ATOM_COUNT>
28

> <PUBCHEM_ATOM_DEF_STEREO_COUNT>
0

> <PUBCHEM_ATOM_UDEF_STEREO_COUNT>
0

> <PUBCHEM_BOND_DEF_STEREO_COUNT>
0

> <PUBCHEM_BOND_UDEF_STEREO_COUNT>
0

> <PUBCHEM_ISOTOPIC_ATOM_COUNT>
0

> <PUBCHEM_COMPONENT_COUNT>
1

> <PUBCHEM_CACTVS_TAUTO_COUNT>
1

> <PUBCHEM_CONFORMER_ID>
036BC17200000001

> <PUBCHEM_MMFF94_ENERGY>
80.1339

> <PUBCHEM_FEATURE_SELFOVERLAP>
40.744

> <PUBCHEM_SHAPE_FINGERPRINT>
10366900 7 17917425364137443640
10411042 1 18268718388308751890
10673678 19 17536869975865416941
10906281 52 18129393621738899149
1100329 8 18411416215791392041
11115154 58 17274527734429186289
11445158 3 17753647639703814909
11578080 2 17824802654373349892
12035758 1 18270418139149038691
12293681 160 18125430917587460673
12553582 1 18341615871590523528
12788726 201 18198619922085723456
13140716 1 18340771532433124240
13149001 5 18340751715897248605
13540713 4 18269264845334282873
13583140 156 16878809118287624816
13690498 29 18265341775061878462
13911987 19 18263919935065919941
14251757 5 18409168800711892062
14674994 50 16629947954053338687
14790565 3 18052544274639419353
15324884 4 17987783241837248754
16114785 44 17486515710182085856
17492 54 18265325123758274237
1813 80 17985847027604424710
19319366 153 17895192134721924667
20101258 96 18266472064345929386
20511986 3 17894624826019904972
20587220 46 15330340757882352933
20642791 239 18334301959245922976
20739085 24 17036421125401116609
20775438 99 17767360864656964439
21049683 271 17686642533185160470
22182313 1 18198895001803142648
23557571 272 18059582317915238272
23559900 14 18270391827498836105
23566358 2 18196925784893728325
2748010 2 18269827778081363753
283562 15 18054504699734798337
3178227 256 18337679612317630505
3380486 145 18267890361389572587
394222 165 17099172010122887681
4280585 95 18341322345473682680
484989 97 18336260250132660119
5171179 24 18197494249569086857
70251023 43 18125151895232371663
7237137 82 18334586771374604454
9709674 26 18196075867159107261

> <PUBCHEM_SHAPE_MULTIPOLES>
555.51
9.67
5.09
1.46
13.43
1.47
-0.46
-4.05
-4.47
-5.56
0.99
-0.21
-0.14
1.44

> <PUBCHEM_SHAPE_SELFOVERLAP>
1228.975

> <PUBCHEM_SHAPE_VOLUME>
297.8

> <PUBCHEM_COORDINATE_TYPE>
2
5
10

$$$$