127042920
  -OEChem-03242010103D

 52 55  0     0  0  0  0  0  0999 V2000
   -7.4313   -0.4794    2.0467 F   0  0  0  0  0  0  0  0  0  0  0  0
   -8.7262   -1.2156   -0.2462 F   0  0  0  0  0  0  0  0  0  0  0  0
    2.0613    0.7398    0.2438 O   0  0  0  0  0  0  0  0  0  0  0  0
    3.4961   -3.0335   -0.2714 O   0  0  0  0  0  0  0  0  0  0  0  0
    5.9549   -2.0627   -0.4490 O   0  0  0  0  0  0  0  0  0  0  0  0
    6.3974    2.6495   -0.0546 O   0  0  0  0  0  0  0  0  0  0  0  0
   -2.7746    0.8974    0.1276 N   0  0  0  0  0  0  0  0  0  0  0  0
   -0.1070   -0.0665    0.4074 N   0  0  0  0  0  0  0  0  0  0  0  0
   -1.6768    1.8180    0.4566 C   0  0  0  0  0  0  0  0  0  0  0  0
   -2.2835   -0.2025   -0.7155 C   0  0  0  0  0  0  0  0  0  0  0  0
   -0.5516    1.0858    1.1906 C   0  0  0  0  0  0  0  0  0  0  0  0
   -1.1718   -0.9790   -0.0073 C   0  0  0  0  0  0  0  0  0  0  0  0
   -3.8611    1.6118   -0.5417 C   0  0  0  0  0  0  0  0  0  0  0  0
    1.2137   -0.3621    0.2335 C   0  0  0  0  0  0  0  0  0  0  0  0
   -5.1609    0.8563   -0.4630 C   0  0  0  0  0  0  0  0  0  0  0  0
    1.6537   -1.6204    0.0659 C   0  0  0  0  0  0  0  0  0  0  0  0
    3.4088    0.5452    0.0770 C   0  0  0  0  0  0  0  0  0  0  0  0
    3.9752   -0.7144   -0.1041 C   0  0  0  0  0  0  0  0  0  0  0  0
    3.0928   -1.8890   -0.1184 C   0  0  0  0  0  0  0  0  0  0  0  0
   -5.7046    0.5317    0.7799 C   0  0  0  0  0  0  0  0  0  0  0  0
   -5.8218    0.4811   -1.6327 C   0  0  0  0  0  0  0  0  0  0  0  0
    5.3553   -0.8530   -0.2691 C   0  0  0  0  0  0  0  0  0  0  0  0
    4.2224    1.6784    0.0940 C   0  0  0  0  0  0  0  0  0  0  0  0
   -6.9092   -0.1679    0.8532 C   0  0  0  0  0  0  0  0  0  0  0  0
   -7.0262   -0.2187   -1.5594 C   0  0  0  0  0  0  0  0  0  0  0  0
    5.6015    1.5453   -0.0705 C   0  0  0  0  0  0  0  0  0  0  0  0
    6.1667    0.2822   -0.2514 C   0  0  0  0  0  0  0  0  0  0  0  0
   -7.5700   -0.5431   -0.3164 C   0  0  0  0  0  0  0  0  0  0  0  0
    6.3785   -2.7568    0.7230 C   0  0  0  0  0  0  0  0  0  0  0  0
    7.7984    2.4422   -0.2284 C   0  0  0  0  0  0  0  0  0  0  0  0
   -1.9064    0.1822   -1.6730 H   0  0  0  0  0  0  0  0  0  0  0  0
   -1.2798    2.2872   -0.4537 H   0  0  0  0  0  0  0  0  0  0  0  0
   -3.0911   -0.9083   -0.9420 H   0  0  0  0  0  0  0  0  0  0  0  0
   -2.0423    2.6206    1.1086 H   0  0  0  0  0  0  0  0  0  0  0  0
    0.2570    1.7981    1.3901 H   0  0  0  0  0  0  0  0  0  0  0  0
   -0.9067    0.7348    2.1682 H   0  0  0  0  0  0  0  0  0  0  0  0
   -1.5684   -1.5007    0.8728 H   0  0  0  0  0  0  0  0  0  0  0  0
   -0.8254   -1.7420   -0.7132 H   0  0  0  0  0  0  0  0  0  0  0  0
   -3.6008    1.8567   -1.5802 H   0  0  0  0  0  0  0  0  0  0  0  0
   -4.0440    2.5765   -0.0476 H   0  0  0  0  0  0  0  0  0  0  0  0
    1.0097   -2.4918    0.0825 H   0  0  0  0  0  0  0  0  0  0  0  0
   -5.2045    0.8217    1.7002 H   0  0  0  0  0  0  0  0  0  0  0  0
   -5.4095    0.7260   -2.6078 H   0  0  0  0  0  0  0  0  0  0  0  0
    3.7850    2.6636    0.2350 H   0  0  0  0  0  0  0  0  0  0  0  0
   -7.5408   -0.5115   -2.4698 H   0  0  0  0  0  0  0  0  0  0  0  0
    7.2314    0.1199   -0.3855 H   0  0  0  0  0  0  0  0  0  0  0  0
    6.6473   -3.7777    0.4384 H   0  0  0  0  0  0  0  0  0  0  0  0
    5.5830   -2.7995    1.4738 H   0  0  0  0  0  0  0  0  0  0  0  0
    7.2613   -2.2679    1.1467 H   0  0  0  0  0  0  0  0  0  0  0  0
    8.2776    3.4260   -0.1883 H   0  0  0  0  0  0  0  0  0  0  0  0
    8.0236    2.0177   -1.2127 H   0  0  0  0  0  0  0  0  0  0  0  0
    8.2220    1.8477    0.5882 H   0  0  0  0  0  0  0  0  0  0  0  0
  1 24  1  0  0  0  0
  2 28  1  0  0  0  0
  3 14  1  0  0  0  0
  3 17  1  0  0  0  0
  4 19  2  0  0  0  0
  5 22  1  0  0  0  0
  5 29  1  0  0  0  0
  6 26  1  0  0  0  0
  6 30  1  0  0  0  0
  7  9  1  0  0  0  0
  7 10  1  0  0  0  0
  7 13  1  0  0  0  0
  8 11  1  0  0  0  0
  8 12  1  0  0  0  0
  8 14  1  0  0  0  0
  9 11  1  0  0  0  0
  9 32  1  0  0  0  0
  9 34  1  0  0  0  0
 10 12  1  0  0  0  0
 10 31  1  0  0  0  0
 10 33  1  0  0  0  0
 11 35  1  0  0  0  0
 11 36  1  0  0  0  0
 12 37  1  0  0  0  0
 12 38  1  0  0  0  0
 13 15  1  0  0  0  0
 13 39  1  0  0  0  0
 13 40  1  0  0  0  0
 14 16  2  0  0  0  0
 15 20  2  0  0  0  0
 15 21  1  0  0  0  0
 16 19  1  0  0  0  0
 16 41  1  0  0  0  0
 17 18  2  0  0  0  0
 17 23  1  0  0  0  0
 18 19  1  0  0  0  0
 18 22  1  0  0  0  0
 20 24  1  0  0  0  0
 20 42  1  0  0  0  0
 21 25  2  0  0  0  0
 21 43  1  0  0  0  0
 22 27  2  0  0  0  0
 23 26  2  0  0  0  0
 23 44  1  0  0  0  0
 24 28  2  0  0  0  0
 25 28  1  0  0  0  0
 25 45  1  0  0  0  0
 26 27  1  0  0  0  0
 27 46  1  0  0  0  0
 29 47  1  0  0  0  0
 29 48  1  0  0  0  0
 29 49  1  0  0  0  0
 30 50  1  0  0  0  0
 30 51  1  0  0  0  0
 30 52  1  0  0  0  0
M  END
> <PUBCHEM_COMPOUND_CID>
127042920

> <PUBCHEM_CONFORMER_RMSD>
0.8

> <PUBCHEM_CONFORMER_DIVERSEORDER>
3
85
55
73
48
119
101
58
21
40
79
5
71
77
36
23
49
92
95
69
9
56
13
117
28
124
131
93
97
70
125
74
88
68
35
45
96
63
86
42
29
130
76
67
16
60
11
47
46
51
98
25
133
53
8
132
39
50
126
44
64
30
52
22
26
102
78
66
41
81
61
62
43
54
106
82
57
80
19
18
32
31
33
59
12
27
20
115
6
91
121
10
105
1
120
111
128
87
34
15
104
116
2
65
108
24
75
14
129
114
118
89
112
94
123
107
72
113
99
37
17
109
103
122
110
38
127
84
7
4
100
83
90

> <PUBCHEM_MMFF94_PARTIAL_CHARGES>
36
1 -0.19
10 0.27
11 0.37
12 0.37
13 0.41
14 0.18
15 -0.14
16 -0.14
17 0.08
18 0.09
19 0.47
2 -0.19
20 -0.15
21 -0.15
22 0.08
23 -0.15
24 0.19
25 -0.15
26 0.08
27 -0.15
28 0.19
29 0.28
3 -0.16
30 0.28
4 -0.57
41 0.15
42 0.15
43 0.15
44 0.15
45 0.15
46 0.15
5 -0.36
6 -0.36
7 -0.81
8 -0.84
9 0.27

> <PUBCHEM_EFFECTIVE_ROTOR_COUNT>
6.2

> <PUBCHEM_PHARMACOPHORE_FEATURES>
10
1 3 acceptor
1 4 acceptor
1 5 acceptor
1 6 acceptor
1 7 cation
1 8 cation
6 15 20 21 24 25 28 rings
6 17 18 22 23 26 27 rings
6 3 14 16 17 18 19 rings
6 7 8 9 10 11 12 rings

> <PUBCHEM_HEAVY_ATOM_COUNT>
30

> <PUBCHEM_ATOM_DEF_STEREO_COUNT>
0

> <PUBCHEM_ATOM_UDEF_STEREO_COUNT>
0

> <PUBCHEM_BOND_DEF_STEREO_COUNT>
0

> <PUBCHEM_BOND_UDEF_STEREO_COUNT>
0

> <PUBCHEM_ISOTOPIC_ATOM_COUNT>
0

> <PUBCHEM_COMPONENT_COUNT>
1

> <PUBCHEM_CACTVS_TAUTO_COUNT>
1

> <PUBCHEM_CONFORMER_ID>
0792856800000003

> <PUBCHEM_MMFF94_ENERGY>
101.3363

> <PUBCHEM_FEATURE_SELFOVERLAP>
50.787

> <PUBCHEM_SHAPE_FINGERPRINT>
10 15 17894909667786947008
10299344 5 17918275355429606767
10391435 84 18041278863843566643
10411042 1 18050285861752361006
10595046 47 18343302526601426553
10674148 151 14764350444478095612
12166972 35 18335423447867892268
12236239 1 18131350778221650180
12730499 353 18334859398745331618
13533116 47 18272930501706623120
13782708 43 17896316913494635099
13835254 42 18340486665129562224
13914758 101 7853582318305326831
14251764 18 17632577163204594029
14294032 229 15553068562149028531
14461889 52 17967535704745822554
14849402 71 18130509738169483449
14856354 85 16702018708646261085
150020 25 17967810531709173111
15064986 266 18338245881368070273
15142383 8 10303810973664111162
15183329 4 17346595279552118653
15352257 5 18341894104494913179
15461852 350 15574720209399995681
15510794 2 18113900460354980771
15716309 27 18272932709583401365
1577012 14 18201726123801348545
17492 89 17984424027476776990
18335252 98 18336267928974847211
18365409 1 18268431424580193542
18608769 82 18336828697000557707
20157964 124 18410292515366558596
21049683 271 18271242819925360169
21150785 3 18060419144404736373
21267235 1 18272092643618053806
21315763 28 18338233765360052766
21521721 280 18411141337752540275
220451 1 17561361781961878439
22149856 69 17917435276405070289
23081809 10 17917712379168597465
23389318 12 18342166809253459447
23424782 7 18260269672488948363
23516275 137 17274003309899946087
23522609 53 17703248272732556105
23559900 14 18339355370136355249
23569917 315 18199752440949529062
24771750 20 17608385853635492220
255183 451 17772199600910314414
27425 322 16733273464694639072
335352 9 18411425000070046694
34797466 226 17988931063462690772
4073 2 18187930620132394602
4149490 64 18334573556151105754
4258327 124 17677629716266437484
4325135 7 18411698803343934877
44880568 143 17313103021646681661
45377200 153 16486693701009658223
999808 66 18336272310585632123

> <PUBCHEM_SHAPE_MULTIPOLES>
569.4
25.45
2.51
1.06
22.75
0.49
0.06
-0.35
-1.61
-6.41
0.03
2.18
0.01
-0.13

> <PUBCHEM_SHAPE_SELFOVERLAP>
1238.652

> <PUBCHEM_SHAPE_VOLUME>
312.8

> <PUBCHEM_COORDINATE_TYPE>
2
5
10

$$$$