24
 OpenBabel03302012423D

 77 81  0  0  0  0  0  0  0  0999 V2000
    2.0227    1.6818   -4.3194 C   0  0  0  0  0  0  0  0  0  0  0  0
    2.8897    2.1618   -3.1589 C   0  0  0  0  0  0  0  0  0  0  0  0
    2.6899    1.5638   -1.8275 N   0  0  0  0  0  0  0  0  0  0  0  0
    1.7957    0.4145   -1.5964 C   0  0  0  0  0  0  0  0  0  0  0  0
    0.3044    0.7308   -1.7177 C   0  0  0  0  0  0  0  0  0  0  0  0
    3.3561    2.1202   -0.7454 C   0  0  0  0  0  0  0  0  0  0  0  0
    3.0937    1.7481    0.3892 O   0  0  0  0  0  0  0  0  0  0  0  0
    4.2978    3.2690   -0.8520 C   0  0  0  0  0  0  0  0  0  0  0  0
    4.4085    4.2446    0.1168 C   0  0  0  0  0  0  0  0  0  0  0  0
    5.2067    5.3236   -0.2666 C   0  0  0  0  0  0  0  0  0  0  0  0
    5.8336    5.2051   -1.5249 C   0  0  0  0  0  0  0  0  0  0  0  0
    6.7013    6.2623   -2.2207 C   0  0  0  0  0  0  0  0  0  0  0  0
    6.6043    6.4403   -3.6788 C   0  0  0  0  0  0  0  0  0  0  0  0
    5.8012    5.6645   -4.5507 C   0  0  0  0  0  0  0  0  0  0  0  0
    5.7161    5.8896   -5.9323 C   0  0  0  0  0  0  0  0  0  0  0  0
    6.4035    6.9397   -6.5989 C   0  0  0  0  0  0  0  0  0  0  0  0
    6.2952    7.1672   -7.9016 N   0  3  0  0  0  0  0  0  0  0  0  0
    6.9458    8.2749   -8.6141 C   0  0  0  0  0  0  0  0  0  0  0  0
    5.4893    6.3482   -8.8170 C   0  0  0  0  0  0  0  0  0  0  0  0
    7.2094    7.7484   -5.7589 C   0  0  0  0  0  0  0  0  0  0  0  0
    7.3190    7.5252   -4.3903 C   0  0  0  0  0  0  0  0  0  0  0  0
    8.2447    8.5752   -3.5172 S   0  0  0  0  0  0  0  0  0  0  0  0
    8.2755    8.2510   -1.8842 C   0  0  0  0  0  0  0  0  0  0  0  0
    9.0148    9.1188   -1.0492 C   0  0  0  0  0  0  0  0  0  0  0  0
    9.0596    8.8678    0.3276 C   0  0  0  0  0  0  0  0  0  0  0  0
    8.4060    7.7559    0.8581 C   0  0  0  0  0  0  0  0  0  0  0  0
    7.6948    6.9051    0.0151 C   0  0  0  0  0  0  0  0  0  0  0  0
    7.5426    7.1335   -1.3815 C   0  0  0  0  0  0  0  0  0  0  0  0
    8.4282    7.4756    2.3489 C   0  0  0  0  0  0  0  0  0  0  0  0
    9.4597    8.3242    3.1131 C   0  0  0  0  0  0  0  0  0  0  0  0
    9.4497    9.7585    2.6033 C   0  0  0  0  0  0  0  0  0  0  0  0
    9.7865    9.7340    1.1899 N   0  0  0  0  0  0  0  0  0  0  0  0
   10.8368   10.5610    0.6235 C   0  0  0  0  0  0  0  0  0  0  0  0
   10.2398   11.3209   -0.5470 C   0  0  0  0  0  0  0  0  0  0  0  0
    9.7478   10.3326   -1.6191 C   0  0  0  0  0  0  0  0  0  0  0  0
    5.3050    3.7200   -2.1180 S   0  0  0  0  0  0  0  0  0  0  0  0
    2.0057   -2.0385    0.6373 F   0  0  0  0  0  0  0  0  0  0  0  0
    3.6889   -2.1885    0.9445 P   0  5  0  0  0  0  0  0  0  0  0  0
    3.3419   -2.6755    2.5535 F   0  0  0  0  0  0  0  0  0  0  0  0
    5.3705   -2.3428    1.2546 F   0  0  0  0  0  0  0  0  0  0  0  0
    4.0356   -1.6954   -0.6653 F   0  0  0  0  0  0  0  0  0  0  0  0
    3.7520   -0.5564    1.4645 F   0  0  0  0  0  0  0  0  0  0  0  0
    3.6286   -3.8245    0.4289 F   0  0  0  0  0  0  0  0  0  0  0  0
    2.3642    2.2122   -5.2352 H   0  0  0  0  0  0  0  0  0  0  0  0
    0.9710    1.9935   -4.1974 H   0  0  0  0  0  0  0  0  0  0  0  0
    2.1232    0.5919   -4.4876 H   0  0  0  0  0  0  0  0  0  0  0  0
    2.7009    3.2571   -3.0885 H   0  0  0  0  0  0  0  0  0  0  0  0
    3.9350    1.9696   -3.4697 H   0  0  0  0  0  0  0  0  0  0  0  0
    1.9005    0.0483   -0.5578 H   0  0  0  0  0  0  0  0  0  0  0  0
    2.0845   -0.4370   -2.2467 H   0  0  0  0  0  0  0  0  0  0  0  0
    0.0368    1.5883   -1.0657 H   0  0  0  0  0  0  0  0  0  0  0  0
   -0.2745   -0.1577   -1.3858 H   0  0  0  0  0  0  0  0  0  0  0  0
   -0.0218    0.9262   -2.7457 H   0  0  0  0  0  0  0  0  0  0  0  0
    3.8616    4.2248    1.0501 H   0  0  0  0  0  0  0  0  0  0  0  0
    5.2613    6.1843    0.3813 H   0  0  0  0  0  0  0  0  0  0  0  0
    5.1873    4.8600   -4.2381 H   0  0  0  0  0  0  0  0  0  0  0  0
    5.0624    5.2014   -6.4335 H   0  0  0  0  0  0  0  0  0  0  0  0
    7.5573    8.9730   -8.0316 H   0  0  0  0  0  0  0  0  0  0  0  0
    6.1713    8.9096   -9.0973 H   0  0  0  0  0  0  0  0  0  0  0  0
    7.6130    7.8726   -9.4041 H   0  0  0  0  0  0  0  0  0  0  0  0
    4.9691    5.4829   -8.3970 H   0  0  0  0  0  0  0  0  0  0  0  0
    6.1454    5.9431   -9.6164 H   0  0  0  0  0  0  0  0  0  0  0  0
    4.7094    6.9813   -9.2925 H   0  0  0  0  0  0  0  0  0  0  0  0
    7.7793    8.5824   -6.1134 H   0  0  0  0  0  0  0  0  0  0  0  0
    7.3015    6.0495    0.5156 H   0  0  0  0  0  0  0  0  0  0  0  0
    8.6467    6.4065    2.5575 H   0  0  0  0  0  0  0  0  0  0  0  0
    7.4015    7.6951    2.7189 H   0  0  0  0  0  0  0  0  0  0  0  0
   10.4760    7.9141    2.9323 H   0  0  0  0  0  0  0  0  0  0  0  0
    9.2434    8.2753    4.2021 H   0  0  0  0  0  0  0  0  0  0  0  0
   10.1617   10.3878    3.1775 H   0  0  0  0  0  0  0  0  0  0  0  0
    8.4278   10.1813    2.7323 H   0  0  0  0  0  0  0  0  0  0  0  0
   11.6605    9.9119    0.2503 H   0  0  0  0  0  0  0  0  0  0  0  0
   11.2537   11.2592    1.3785 H   0  0  0  0  0  0  0  0  0  0  0  0
   10.9692   12.0253   -1.0011 H   0  0  0  0  0  0  0  0  0  0  0  0
    9.3793   11.9080   -0.1566 H   0  0  0  0  0  0  0  0  0  0  0  0
   10.6038    9.9437   -2.2111 H   0  0  0  0  0  0  0  0  0  0  0  0
    9.0882   10.9176   -2.2974 H   0  0  0  0  0  0  0  0  0  0  0  0
  1  2  1  0  0  0  0
  1 44  1  0  0  0  0
  1 45  1  0  0  0  0
  1 46  1  0  0  0  0
  2  3  1  0  0  0  0
  2 47  1  0  0  0  0
  2 48  1  0  0  0  0
  3  4  1  0  0  0  0
  3  6  1  0  0  0  0
  4  5  1  0  0  0  0
  4 49  1  0  0  0  0
  4 50  1  0  0  0  0
  5 51  1  0  0  0  0
  5 52  1  0  0  0  0
  5 53  1  0  0  0  0
  6  7  2  0  0  0  0
  6  8  1  0  0  0  0
  8  9  2  0  0  0  0
  8 36  1  0  0  0  0
  9 10  1  0  0  0  0
  9 54  1  0  0  0  0
 10 11  2  0  0  0  0
 10 55  1  0  0  0  0
 11 12  1  0  0  0  0
 11 36  1  0  0  0  0
 12 13  2  0  0  0  0
 12 28  1  0  0  0  0
 13 14  1  0  0  0  0
 13 21  1  0  0  0  0
 14 15  2  0  0  0  0
 14 56  1  0  0  0  0
 15 16  1  0  0  0  0
 15 57  1  0  0  0  0
 16 17  2  0  0  0  0
 16 20  1  0  0  0  0
 17 18  1  0  0  0  0
 17 19  1  0  0  0  0
 18 58  1  0  0  0  0
 18 59  1  0  0  0  0
 18 60  1  0  0  0  0
 19 61  1  0  0  0  0
 19 62  1  0  0  0  0
 19 63  1  0  0  0  0
 20 21  2  0  0  0  0
 20 64  1  0  0  0  0
 21 22  1  0  0  0  0
 22 23  1  0  0  0  0
 23 24  1  0  0  0  0
 23 28  2  0  0  0  0
 24 25  2  0  0  0  0
 24 35  1  0  0  0  0
 25 26  1  0  0  0  0
 25 32  1  0  0  0  0
 26 27  2  0  0  0  0
 26 29  1  0  0  0  0
 27 28  1  0  0  0  0
 27 65  1  0  0  0  0
 29 30  1  0  0  0  0
 29 66  1  0  0  0  0
 29 67  1  0  0  0  0
 30 31  1  0  0  0  0
 30 68  1  0  0  0  0
 30 69  1  0  0  0  0
 31 32  1  0  0  0  0
 31 70  1  0  0  0  0
 31 71  1  0  0  0  0
 32 33  1  0  0  0  0
 33 34  1  0  0  0  0
 33 72  1  0  0  0  0
 33 73  1  0  0  0  0
 34 35  1  0  0  0  0
 34 74  1  0  0  0  0
 34 75  1  0  0  0  0
 35 76  1  0  0  0  0
 35 77  1  0  0  0  0
 37 38  1  0  0  0  0
 38 39  1  0  0  0  0
 38 40  1  0  0  0  0
 38 41  1  0  0  0  0
 38 42  1  0  0  0  0
 38 43  1  0  0  0  0
M  CHG  2  17   1  38  -1
M  END
$$$$