137647244
  -OEChem-03242010103D

 69 73  0     1  0  0  0  0  0999 V2000
    4.3062    3.2019    0.4956 O   0  0  0  0  0  0  0  0  0  0  0  0
    5.9157    1.2226   -0.6038 O   0  0  0  0  0  0  0  0  0  0  0  0
   -2.1230   -1.5349   -2.9528 O   0  0  0  0  0  0  0  0  0  0  0  0
   -3.1382    1.2408   -2.4798 O   0  0  0  0  0  0  0  0  0  0  0  0
    0.8305   -1.5553    2.1492 N   0  0  2  0  0  0  0  0  0  0  0  0
   -1.6544   -2.8134    1.2046 N   0  0  0  0  0  0  0  0  0  0  0  0
   -2.7679   -2.0703    1.0987 N   0  0  0  0  0  0  0  0  0  0  0  0
   -3.0745   -2.0008   -0.1920 N   0  0  0  0  0  0  0  0  0  0  0  0
   -2.3376    1.2426   -0.2741 N   0  0  0  0  0  0  0  0  0  0  0  0
    1.9446   -2.5004    2.2931 C   0  0  0  0  0  0  0  0  0  0  0  0
    1.2982   -0.1775    2.3829 C   0  0  0  0  0  0  0  0  0  0  0  0
    2.9745   -2.2643    1.1838 C   0  0  0  0  0  0  0  0  0  0  0  0
    2.5127    0.1896    1.5610 C   0  0  0  0  0  0  0  0  0  0  0  0
    3.3405   -0.8116    1.0247 C   0  0  0  0  0  0  0  0  0  0  0  0
   -0.2546   -1.8878    3.0714 C   0  0  0  0  0  0  0  0  0  0  0  0
   -1.0392   -3.0923    2.5529 C   0  0  0  0  0  0  0  0  0  0  0  0
    2.8557    1.5370    1.3847 C   0  0  0  0  0  0  0  0  0  0  0  0
    4.4771   -0.4509    0.2892 C   0  0  0  0  0  0  0  0  0  0  0  0
    3.9946    1.8859    0.6592 C   0  0  0  0  0  0  0  0  0  0  0  0
    4.8031    0.8931    0.1101 C   0  0  0  0  0  0  0  0  0  0  0  0
   -1.2179   -3.2393   -0.0121 C   0  0  0  0  0  0  0  0  0  0  0  0
   -2.1350   -2.7115   -0.8859 C   0  0  0  0  0  0  0  0  0  0  0  0
   -2.1947   -2.8291   -2.3484 C   0  0  0  0  0  0  0  0  0  0  0  0
    3.7663    3.8580   -0.6501 C   0  0  0  0  0  0  0  0  0  0  0  0
    6.6886    0.1464   -1.1319 C   0  0  0  0  0  0  0  0  0  0  0  0
   -0.9710   -0.8291   -2.7463 C   0  0  0  0  0  0  0  0  0  0  0  0
   -0.9962    0.4120   -2.1102 C   0  0  0  0  0  0  0  0  0  0  0  0
    0.2412   -1.3666   -3.1787 C   0  0  0  0  0  0  0  0  0  0  0  0
    0.1907    1.1155   -1.9065 C   0  0  0  0  0  0  0  0  0  0  0  0
   -2.2508    0.9905   -1.6495 C   0  0  0  0  0  0  0  0  0  0  0  0
    1.4285   -0.6631   -2.9751 C   0  0  0  0  0  0  0  0  0  0  0  0
    1.4032    0.5780   -2.3389 C   0  0  0  0  0  0  0  0  0  0  0  0
   -3.4118    1.8160    0.4499 C   0  0  0  0  0  0  0  0  0  0  0  0
   -4.5718    2.2085   -0.2179 C   0  0  0  0  0  0  0  0  0  0  0  0
   -3.3095    1.9880    1.8302 C   0  0  0  0  0  0  0  0  0  0  0  0
   -5.6296    2.7734    0.4948 C   0  0  0  0  0  0  0  0  0  0  0  0
   -4.3671    2.5528    2.5429 C   0  0  0  0  0  0  0  0  0  0  0  0
   -5.5272    2.9456    1.8752 C   0  0  0  0  0  0  0  0  0  0  0  0
    2.4213   -2.3907    3.2771 H   0  0  0  0  0  0  0  0  0  0  0  0
    1.6177   -3.5419    2.2128 H   0  0  0  0  0  0  0  0  0  0  0  0
    1.5481   -0.0263    3.4417 H   0  0  0  0  0  0  0  0  0  0  0  0
    0.4861    0.5131    2.1223 H   0  0  0  0  0  0  0  0  0  0  0  0
    2.5691   -2.6194    0.2275 H   0  0  0  0  0  0  0  0  0  0  0  0
    3.8730   -2.8521    1.4062 H   0  0  0  0  0  0  0  0  0  0  0  0
   -0.9516   -1.0425    3.1471 H   0  0  0  0  0  0  0  0  0  0  0  0
    0.1177   -2.0837    4.0846 H   0  0  0  0  0  0  0  0  0  0  0  0
   -1.8868   -3.3179    3.2103 H   0  0  0  0  0  0  0  0  0  0  0  0
   -0.4474   -4.0045    2.4372 H   0  0  0  0  0  0  0  0  0  0  0  0
    2.2312    2.3163    1.8156 H   0  0  0  0  0  0  0  0  0  0  0  0
    5.0641   -1.2673   -0.1188 H   0  0  0  0  0  0  0  0  0  0  0  0
   -0.3355   -3.8495   -0.1435 H   0  0  0  0  0  0  0  0  0  0  0  0
   -1.4221   -3.4950   -2.7482 H   0  0  0  0  0  0  0  0  0  0  0  0
   -3.1586   -3.2628   -2.6368 H   0  0  0  0  0  0  0  0  0  0  0  0
    4.1039    4.8979   -0.6407 H   0  0  0  0  0  0  0  0  0  0  0  0
    2.6721    3.8444   -0.6196 H   0  0  0  0  0  0  0  0  0  0  0  0
    4.1219    3.3824   -1.5696 H   0  0  0  0  0  0  0  0  0  0  0  0
    7.5339    0.5903   -1.6682 H   0  0  0  0  0  0  0  0  0  0  0  0
    6.1203   -0.4376   -1.8639 H   0  0  0  0  0  0  0  0  0  0  0  0
    7.1103   -0.4770   -0.3360 H   0  0  0  0  0  0  0  0  0  0  0  0
    0.2812   -2.3233   -3.6916 H   0  0  0  0  0  0  0  0  0  0  0  0
    0.1889    2.0858   -1.4161 H   0  0  0  0  0  0  0  0  0  0  0  0
    2.3724   -1.0795   -3.3145 H   0  0  0  0  0  0  0  0  0  0  0  0
    2.3269    1.1273   -2.1843 H   0  0  0  0  0  0  0  0  0  0  0  0
   -1.5332    0.9832    0.2939 H   0  0  0  0  0  0  0  0  0  0  0  0
   -4.7261    2.1075   -1.2826 H   0  0  0  0  0  0  0  0  0  0  0  0
   -2.4113    1.6851    2.3625 H   0  0  0  0  0  0  0  0  0  0  0  0
   -6.5336    3.0794   -0.0239 H   0  0  0  0  0  0  0  0  0  0  0  0
   -4.2876    2.6865    3.6178 H   0  0  0  0  0  0  0  0  0  0  0  0
   -6.3507    3.3852    2.4302 H   0  0  0  0  0  0  0  0  0  0  0  0
  1 19  1  0  0  0  0
  1 24  1  0  0  0  0
  2 20  1  0  0  0  0
  2 25  1  0  0  0  0
  3 23  1  0  0  0  0
  3 26  1  0  0  0  0
  4 30  2  0  0  0  0
  5 10  1  0  0  0  0
  5 11  1  0  0  0  0
  5 15  1  0  0  0  0
  6  7  1  0  0  0  0
  6 16  1  0  0  0  0
  6 21  1  0  0  0  0
  7  8  2  0  0  0  0
  8 22  1  0  0  0  0
  9 30  1  0  0  0  0
  9 33  1  0  0  0  0
  9 64  1  0  0  0  0
 10 12  1  0  0  0  0
 10 39  1  0  0  0  0
 10 40  1  0  0  0  0
 11 13  1  0  0  0  0
 11 41  1  0  0  0  0
 11 42  1  0  0  0  0
 12 14  1  0  0  0  0
 12 43  1  0  0  0  0
 12 44  1  0  0  0  0
 13 14  1  0  0  0  0
 13 17  2  0  0  0  0
 14 18  2  0  0  0  0
 15 16  1  0  0  0  0
 15 45  1  0  0  0  0
 15 46  1  0  0  0  0
 16 47  1  0  0  0  0
 16 48  1  0  0  0  0
 17 19  1  0  0  0  0
 17 49  1  0  0  0  0
 18 20  1  0  0  0  0
 18 50  1  0  0  0  0
 19 20  2  0  0  0  0
 21 22  2  0  0  0  0
 21 51  1  0  0  0  0
 22 23  1  0  0  0  0
 23 52  1  0  0  0  0
 23 53  1  0  0  0  0
 24 54  1  0  0  0  0
 24 55  1  0  0  0  0
 24 56  1  0  0  0  0
 25 57  1  0  0  0  0
 25 58  1  0  0  0  0
 25 59  1  0  0  0  0
 26 27  1  0  0  0  0
 26 28  2  0  0  0  0
 27 29  2  0  0  0  0
 27 30  1  0  0  0  0
 28 31  1  0  0  0  0
 28 60  1  0  0  0  0
 29 32  1  0  0  0  0
 29 61  1  0  0  0  0
 31 32  2  0  0  0  0
 31 62  1  0  0  0  0
 32 63  1  0  0  0  0
 33 34  2  0  0  0  0
 33 35  1  0  0  0  0
 34 36  1  0  0  0  0
 34 65  1  0  0  0  0
 35 37  2  0  0  0  0
 35 66  1  0  0  0  0
 36 38  2  0  0  0  0
 36 67  1  0  0  0  0
 37 38  1  0  0  0  0
 37 68  1  0  0  0  0
 38 69  1  0  0  0  0
M  END
> <PUBCHEM_COMPOUND_CID>
137647244

> <PUBCHEM_CONFORMER_RMSD>
1.4

> <PUBCHEM_CONFORMER_DIVERSEORDER>
1
141
165
90
121
99
21
116
156
16
6
107
137
50
148
91
34
131
153
163
69
140
100
15
60
89
7
119
14
132
84
142
59
75
8
94
31
65
10
155
97
30
76
157
154
67
20
143
62
43
66
152
127
2
158
102
118
103
82
135
9
47
160
120
54
28
55
128
159
17
106
164
134
46
101
109
42
52
39
117
95
41
79
86
145
85
38
19
58
53
113
115
23
87
136
92
25
167
74
24
108
33
73
93
166
12
88
44
70
40
45
168
151
48
35
110
26
149
112
126
27
111
124
37
147
138
49
150
36
133
77
162
98
3
68
161
5
96
80
130
129
144
11
64
114
81
139
104
123
146
72
56
63
22
71
13
83
78
32
61
18
125
4
105
57
51
29
122

> <PUBCHEM_MMFF94_PARTIAL_CHARGES>
51
1 -0.36
10 0.27
11 0.41
12 0.14
13 -0.14
14 -0.14
15 0.27
16 0.26
17 -0.15
18 -0.15
19 0.08
2 -0.36
20 0.08
21 -0.3
22 0.05
23 0.46
24 0.28
25 0.28
26 0.08
27 0.09
28 -0.15
29 -0.15
3 -0.36
30 0.54
31 -0.15
32 -0.15
33 0.12
34 -0.15
35 -0.15
36 -0.15
37 -0.15
38 -0.15
4 -0.57
49 0.15
5 -0.81
50 0.15
51 0.15
6 0.31
60 0.15
61 0.15
62 0.15
63 0.15
64 0.37
65 0.15
66 0.15
67 0.15
68 0.15
69 0.15
7 -0.42
8 -0.23
9 -0.55

> <PUBCHEM_EFFECTIVE_ROTOR_COUNT>
11.8

> <PUBCHEM_PHARMACOPHORE_FEATURES>
11
1 1 acceptor
1 2 acceptor
1 3 acceptor
1 4 acceptor
1 5 cation
1 9 donor
5 6 7 8 21 22 rings
6 13 14 17 18 19 20 rings
6 26 27 28 29 31 32 rings
6 33 34 35 36 37 38 rings
6 5 10 11 12 13 14 rings

> <PUBCHEM_HEAVY_ATOM_COUNT>
38

> <PUBCHEM_ATOM_DEF_STEREO_COUNT>
0

> <PUBCHEM_ATOM_UDEF_STEREO_COUNT>
0

> <PUBCHEM_BOND_DEF_STEREO_COUNT>
0

> <PUBCHEM_BOND_UDEF_STEREO_COUNT>
0

> <PUBCHEM_ISOTOPIC_ATOM_COUNT>
0

> <PUBCHEM_COMPONENT_COUNT>
1

> <PUBCHEM_CACTVS_TAUTO_COUNT>
-1

> <PUBCHEM_CONFORMER_ID>
0834548C00000001

> <PUBCHEM_MMFF94_ENERGY>
123.467

> <PUBCHEM_FEATURE_SELFOVERLAP>
55.851

> <PUBCHEM_SHAPE_FINGERPRINT>
11112662 9 18199749146376004297
11578080 2 17988102001203717823
11607047 403 18341626880446836459
1200032 147 16269975355386915337
12104220 4 18265352632634200913
12156800 1 17755343154909541443
12422481 6 16660369168544995465
12608794 3 17677874769910182634
12788726 201 17986370391070671239
14020679 6 18336838519506426260
14279260 333 18412262814697610354
144659 39 18271260381655671705
14615647 1 15170260042338720568
14840074 17 16515405191915181276
15119646 57 18339927116493995928
15351334 14 17699591409376854564
16067690 210 18201717349178096049
16991981 162 18129931399400064947
17809404 112 14116642468166125978
20764821 26 17605524748870733106
21458453 9 17385738980180684561
22121540 332 17533506638240628444
35225 105 18269816654374386911
469060 322 16081361999072855107
50150288 127 18127991895043295977
5252454 2 17967809436313314256

> <PUBCHEM_SHAPE_MULTIPOLES>
733.64
11.1
4.52
3.83
4.15
0.02
0.92
-12.02
-2.04
-2.62
-1.34
-1.18
2.11
-2.49

> <PUBCHEM_SHAPE_SELFOVERLAP>
1586.845

> <PUBCHEM_SHAPE_VOLUME>
401.4

> <PUBCHEM_COORDINATE_TYPE>
2
5
10

$$$$