137641162
  -OEChem-03242010103D

 72 76  0     1  0  0  0  0  0999 V2000
    7.7517    2.0997    0.4350 O   0  0  0  0  0  0  0  0  0  0  0  0
    8.9731   -0.3827    0.6862 O   0  0  0  0  0  0  0  0  0  0  0  0
   -5.1982   -1.3604   -0.6258 O   0  0  0  0  0  0  0  0  0  0  0  0
   -5.6960    2.3401   -0.4434 O   0  0  0  0  0  0  0  0  0  0  0  0
    2.7154   -1.2715   -0.4113 N   0  0  2  0  0  0  0  0  0  0  0  0
   -0.8835   -2.1205   -1.2625 N   0  0  0  0  0  0  0  0  0  0  0  0
   -1.5369   -1.5804   -2.3040 N   0  0  0  0  0  0  0  0  0  0  0  0
   -2.8339   -1.6203   -2.0195 N   0  0  0  0  0  0  0  0  0  0  0  0
   -3.9149    1.1054    0.4564 N   0  0  0  0  0  0  0  0  0  0  0  0
    3.1461   -2.3852    0.4426 C   0  0  0  0  0  0  0  0  0  0  0  0
    3.3483   -0.0164    0.0312 C   0  0  0  0  0  0  0  0  0  0  0  0
    4.6452   -2.6378    0.2521 C   0  0  0  0  0  0  0  0  0  0  0  0
    4.8493   -0.1219    0.1758 C   0  0  0  0  0  0  0  0  0  0  0  0
    5.4652   -1.3762    0.3267 C   0  0  0  0  0  0  0  0  0  0  0  0
    1.2589   -1.1396   -0.3968 C   0  0  0  0  0  0  0  0  0  0  0  0
    0.6210   -2.2229   -1.2657 C   0  0  0  0  0  0  0  0  0  0  0  0
    5.6299    1.0410    0.2252 C   0  0  0  0  0  0  0  0  0  0  0  0
    6.8549   -1.4512    0.4873 C   0  0  0  0  0  0  0  0  0  0  0  0
    7.0116    0.9566    0.3952 C   0  0  0  0  0  0  0  0  0  0  0  0
    7.6237   -0.2882    0.5238 C   0  0  0  0  0  0  0  0  0  0  0  0
   -1.7415   -2.5206   -0.2847 C   0  0  0  0  0  0  0  0  0  0  0  0
   -2.9762   -2.1933   -0.7863 C   0  0  0  0  0  0  0  0  0  0  0  0
   -4.3009   -2.3815   -0.1814 C   0  0  0  0  0  0  0  0  0  0  0  0
    7.0477    3.3323    0.2958 C   0  0  0  0  0  0  0  0  0  0  0  0
    9.5203   -1.6941    0.8103 C   0  0  0  0  0  0  0  0  0  0  0  0
   -6.1481   -0.9528    0.2684 C   0  0  0  0  0  0  0  0  0  0  0  0
   -6.2112    0.3751    0.6902 C   0  0  0  0  0  0  0  0  0  0  0  0
   -7.0636   -1.8844    0.7579 C   0  0  0  0  0  0  0  0  0  0  0  0
   -7.1898    0.7717    1.6017 C   0  0  0  0  0  0  0  0  0  0  0  0
   -5.2661    1.3639    0.1905 C   0  0  0  0  0  0  0  0  0  0  0  0
   -8.0425   -1.4879    1.6693 C   0  0  0  0  0  0  0  0  0  0  0  0
   -8.1055   -0.1599    2.0911 C   0  0  0  0  0  0  0  0  0  0  0  0
   -2.7818    1.8667    0.0782 C   0  0  0  0  0  0  0  0  0  0  0  0
   -2.9443    3.0412   -0.6566 C   0  0  0  0  0  0  0  0  0  0  0  0
   -1.5037    1.4417    0.4403 C   0  0  0  0  0  0  0  0  0  0  0  0
   -0.5501    3.3656   -0.6669 C   0  0  0  0  0  0  0  0  0  0  0  0
   -1.8284    3.7906   -1.0291 C   0  0  0  0  0  0  0  0  0  0  0  0
   -0.3878    2.1910    0.0679 C   0  0  0  0  0  0  0  0  0  0  0  0
    0.6429    4.1669   -1.0651 C   0  0  0  0  0  0  0  0  0  0  0  0
    2.6287   -3.3183    0.1982 H   0  0  0  0  0  0  0  0  0  0  0  0
    2.9327   -2.1690    1.4985 H   0  0  0  0  0  0  0  0  0  0  0  0
    2.9376    0.3056    0.9977 H   0  0  0  0  0  0  0  0  0  0  0  0
    3.1269    0.7633   -0.7087 H   0  0  0  0  0  0  0  0  0  0  0  0
    4.8168   -3.0982   -0.7293 H   0  0  0  0  0  0  0  0  0  0  0  0
    4.9828   -3.3462    1.0181 H   0  0  0  0  0  0  0  0  0  0  0  0
    0.9746   -0.1779   -0.8388 H   0  0  0  0  0  0  0  0  0  0  0  0
    0.8558   -1.1517    0.6240 H   0  0  0  0  0  0  0  0  0  0  0  0
    0.8189   -3.2404   -0.9152 H   0  0  0  0  0  0  0  0  0  0  0  0
    0.9264   -2.1439   -2.3155 H   0  0  0  0  0  0  0  0  0  0  0  0
    5.0972    1.9813    0.1264 H   0  0  0  0  0  0  0  0  0  0  0  0
    7.2750   -2.4477    0.5771 H   0  0  0  0  0  0  0  0  0  0  0  0
   -1.4136   -2.9787    0.6375 H   0  0  0  0  0  0  0  0  0  0  0  0
   -4.7065   -3.3535   -0.4841 H   0  0  0  0  0  0  0  0  0  0  0  0
   -4.2097   -2.3704    0.9128 H   0  0  0  0  0  0  0  0  0  0  0  0
    7.7908    4.1349    0.3487 H   0  0  0  0  0  0  0  0  0  0  0  0
    6.3480    3.4935    1.1230 H   0  0  0  0  0  0  0  0  0  0  0  0
    6.5634    3.4130   -0.6834 H   0  0  0  0  0  0  0  0  0  0  0  0
   10.6025   -1.5807    0.9330 H   0  0  0  0  0  0  0  0  0  0  0  0
    9.3646   -2.2845   -0.0991 H   0  0  0  0  0  0  0  0  0  0  0  0
    9.1512   -2.2027    1.7075 H   0  0  0  0  0  0  0  0  0  0  0  0
   -7.0327   -2.9205    0.4319 H   0  0  0  0  0  0  0  0  0  0  0  0
   -7.2494    1.8031    1.9400 H   0  0  0  0  0  0  0  0  0  0  0  0
   -8.7567   -2.2127    2.0490 H   0  0  0  0  0  0  0  0  0  0  0  0
   -8.8677    0.1488    2.8006 H   0  0  0  0  0  0  0  0  0  0  0  0
   -3.7031    0.2669    0.9933 H   0  0  0  0  0  0  0  0  0  0  0  0
   -3.8995    3.4346   -0.9736 H   0  0  0  0  0  0  0  0  0  0  0  0
   -1.3635    0.5314    1.0173 H   0  0  0  0  0  0  0  0  0  0  0  0
   -1.9663    4.7052   -1.6001 H   0  0  0  0  0  0  0  0  0  0  0  0
    0.6023    1.8600    0.3683 H   0  0  0  0  0  0  0  0  0  0  0  0
    0.4795    4.6660   -2.0263 H   0  0  0  0  0  0  0  0  0  0  0  0
    0.8559    4.9262   -0.3061 H   0  0  0  0  0  0  0  0  0  0  0  0
    1.5267    3.5301   -1.1810 H   0  0  0  0  0  0  0  0  0  0  0  0
  1 19  1  0  0  0  0
  1 24  1  0  0  0  0
  2 20  1  0  0  0  0
  2 25  1  0  0  0  0
  3 23  1  0  0  0  0
  3 26  1  0  0  0  0
  4 30  2  0  0  0  0
  5 10  1  0  0  0  0
  5 11  1  0  0  0  0
  5 15  1  0  0  0  0
  6  7  1  0  0  0  0
  6 16  1  0  0  0  0
  6 21  1  0  0  0  0
  7  8  2  0  0  0  0
  8 22  1  0  0  0  0
  9 30  1  0  0  0  0
  9 33  1  0  0  0  0
  9 65  1  0  0  0  0
 10 12  1  0  0  0  0
 10 40  1  0  0  0  0
 10 41  1  0  0  0  0
 11 13  1  0  0  0  0
 11 42  1  0  0  0  0
 11 43  1  0  0  0  0
 12 14  1  0  0  0  0
 12 44  1  0  0  0  0
 12 45  1  0  0  0  0
 13 14  1  0  0  0  0
 13 17  2  0  0  0  0
 14 18  2  0  0  0  0
 15 16  1  0  0  0  0
 15 46  1  0  0  0  0
 15 47  1  0  0  0  0
 16 48  1  0  0  0  0
 16 49  1  0  0  0  0
 17 19  1  0  0  0  0
 17 50  1  0  0  0  0
 18 20  1  0  0  0  0
 18 51  1  0  0  0  0
 19 20  2  0  0  0  0
 21 22  2  0  0  0  0
 21 52  1  0  0  0  0
 22 23  1  0  0  0  0
 23 53  1  0  0  0  0
 23 54  1  0  0  0  0
 24 55  1  0  0  0  0
 24 56  1  0  0  0  0
 24 57  1  0  0  0  0
 25 58  1  0  0  0  0
 25 59  1  0  0  0  0
 25 60  1  0  0  0  0
 26 27  1  0  0  0  0
 26 28  2  0  0  0  0
 27 29  2  0  0  0  0
 27 30  1  0  0  0  0
 28 31  1  0  0  0  0
 28 61  1  0  0  0  0
 29 32  1  0  0  0  0
 29 62  1  0  0  0  0
 31 32  2  0  0  0  0
 31 63  1  0  0  0  0
 32 64  1  0  0  0  0
 33 34  2  0  0  0  0
 33 35  1  0  0  0  0
 34 37  1  0  0  0  0
 34 66  1  0  0  0  0
 35 38  2  0  0  0  0
 35 67  1  0  0  0  0
 36 37  2  0  0  0  0
 36 38  1  0  0  0  0
 36 39  1  0  0  0  0
 37 68  1  0  0  0  0
 38 69  1  0  0  0  0
 39 70  1  0  0  0  0
 39 71  1  0  0  0  0
 39 72  1  0  0  0  0
M  END
> <PUBCHEM_COMPOUND_CID>
137641162

> <PUBCHEM_CONFORMER_RMSD>
1.4

> <PUBCHEM_CONFORMER_DIVERSEORDER>
11
101
5
180
109
152
2
138
154
75
23
178
66
52
142
94
135
181
56
164
4
146
140
143
112
12
20
176
78
172
173
98
32
158
10
145
84
34
72
115
8
16
108
114
45
120
21
122
105
103
57
163
123
81
88
97
177
95
41
62
50
6
25
121
13
131
137
19
133
87
118
107
53
17
1
48
96
91
100
82
116
42
169
166
18
73
37
119
28
14
148
60
156
43
69
93
144
179
175
129
147
30
55
7
124
46
74
168
151
157
150
182
70
35
171
125
79
149
47
139
49
27
161
167
136
155
38
24
68
128
3
44
102
92
170
117
110
80
126
85
90
76
22
141
104
40
61
65
64
26
113
54
58
71
33
174
29
165
59
51
127
130
111
86
106
67
160
15
153
83
31
77
99
132
162
134
159
9
39
89
36
63

> <PUBCHEM_MMFF94_PARTIAL_CHARGES>
51
1 -0.36
10 0.27
11 0.41
12 0.14
13 -0.14
14 -0.14
15 0.27
16 0.26
17 -0.15
18 -0.15
19 0.08
2 -0.36
20 0.08
21 -0.3
22 0.05
23 0.46
24 0.28
25 0.28
26 0.08
27 0.09
28 -0.15
29 -0.15
3 -0.36
30 0.54
31 -0.15
32 -0.15
33 0.12
34 -0.15
35 -0.15
36 -0.14
37 -0.15
38 -0.15
39 0.14
4 -0.57
5 -0.81
50 0.15
51 0.15
52 0.15
6 0.31
61 0.15
62 0.15
63 0.15
64 0.15
65 0.37
66 0.15
67 0.15
68 0.15
69 0.15
7 -0.42
8 -0.23
9 -0.55

> <PUBCHEM_EFFECTIVE_ROTOR_COUNT>
11.8

> <PUBCHEM_PHARMACOPHORE_FEATURES>
11
1 1 acceptor
1 2 acceptor
1 3 acceptor
1 4 acceptor
1 5 cation
1 9 donor
5 6 7 8 21 22 rings
6 13 14 17 18 19 20 rings
6 26 27 28 29 31 32 rings
6 33 34 35 36 37 38 rings
6 5 10 11 12 13 14 rings

> <PUBCHEM_HEAVY_ATOM_COUNT>
39

> <PUBCHEM_ATOM_DEF_STEREO_COUNT>
0

> <PUBCHEM_ATOM_UDEF_STEREO_COUNT>
0

> <PUBCHEM_BOND_DEF_STEREO_COUNT>
0

> <PUBCHEM_BOND_UDEF_STEREO_COUNT>
0

> <PUBCHEM_ISOTOPIC_ATOM_COUNT>
0

> <PUBCHEM_COMPONENT_COUNT>
1

> <PUBCHEM_CACTVS_TAUTO_COUNT>
-1

> <PUBCHEM_CONFORMER_ID>
08343CCA0000000B

> <PUBCHEM_MMFF94_ENERGY>
125.8616

> <PUBCHEM_FEATURE_SELFOVERLAP>
55.85

> <PUBCHEM_SHAPE_FINGERPRINT>
10190108 129 18408039620225586130
10838868 160 18057029423946947672
10939801 23 18341053012015933996
12422481 6 18272651238870107083
12677640 9 18123188172039991847
13111901 25 18339368568702691973
13811026 1 18407759223074624621
13947947 19 18272929458414582079
14017578 135 18198617920382822879
14394314 77 18335704888991045881
15276724 80 18412258424423401574
15347590 135 18040996224166269674
15419008 145 18263067852878732930
16110190 28 18342458149337473325
18336668 15 18187367632167417365
18608769 82 18411978061985463514
19611394 137 18187938338568317067
23576562 1 11815595506955745219
24771293 8 18059862749425801639
25019877 29 17775287149239341143
57676310 188 18047199823341752517

> <PUBCHEM_SHAPE_MULTIPOLES>
754.22
27.4
4.57
1.36
25.97
4.01
-0.19
-5.84
15.52
0.15
-1.45
-2.2
-0.43
0.08

> <PUBCHEM_SHAPE_SELFOVERLAP>
1627.155

> <PUBCHEM_SHAPE_VOLUME>
414.2

> <PUBCHEM_COORDINATE_TYPE>
2
5
10

$$$$