6
 OpenBabel03292021413D

110114  0  0  0  0  0  0  0  0999 V2000
    6.2664    7.2333   -2.3771 C   0  0  0  0  0  0  0  0  0  0  0  0
    5.5412    8.1024   -1.5180 O   0  0  0  0  0  0  0  0  0  0  0  0
    5.6607    7.7945   -0.1275 C   0  0  0  0  0  0  0  0  0  0  0  0
    4.9707    6.4826    0.2759 C   0  0  0  0  0  0  0  0  0  0  0  0
    5.6249    5.2851   -0.1572 O   0  0  0  0  0  0  0  0  0  0  0  0
    6.9785    5.1429    0.2484 C   0  0  0  0  0  0  0  0  0  0  0  0
    7.1519    5.0394    1.7538 C   0  0  0  0  0  0  0  0  0  0  0  0
    8.5440    5.0137    2.0015 O   0  0  0  0  0  0  0  0  0  0  0  0
    8.8387    4.9209    3.3863 C   0  0  0  0  0  0  0  0  0  0  0  0
   10.3439    4.9275    3.4734 C   0  0  0  0  0  0  0  0  0  0  0  0
   10.7509    4.7294    4.8169 O   0  0  0  0  0  0  0  0  0  0  0  0
   12.0990    4.8348    5.0398 C   0  0  0  0  0  0  0  0  0  0  0  0
   13.0115    4.9529    3.9793 C   0  0  0  0  0  0  0  0  0  0  0  0
   14.3648    5.1400    4.2172 C   0  0  0  0  0  0  0  0  0  0  0  0
   14.8300    5.1610    5.5320 C   0  0  0  0  0  0  0  0  0  0  0  0
   13.9453    4.9846    6.5958 C   0  0  0  0  0  0  0  0  0  0  0  0
   12.5708    4.8305    6.3619 C   0  0  0  0  0  0  0  0  0  0  0  0
   11.8567    4.7092    7.5256 O   0  0  0  0  0  0  0  0  0  0  0  0
   10.4471    4.5656    7.4491 C   0  0  0  0  0  0  0  0  0  0  0  0
   16.2890    5.4454    5.7170 C   0  0  0  0  0  0  0  0  0  0  0  0
   16.6611    6.5641    4.7322 C   0  0  0  0  0  0  0  0  0  0  0  0
   16.3924    6.2851    3.3076 N   0  0  0  0  0  0  0  0  0  0  0  0
   17.5856    5.9072    2.5400 C   0  0  0  0  0  0  0  0  0  0  0  0
   18.6536    7.0091    2.4462 C   0  0  0  0  0  0  0  0  0  0  0  0
   19.9165    6.5558    1.7551 C   0  0  0  0  0  0  0  0  0  0  0  0
   19.8846    5.7496    0.6167 C   0  0  0  0  0  0  0  0  0  0  0  0
   21.0660    5.3616   -0.0062 C   0  0  0  0  0  0  0  0  0  0  0  0
   22.3095    5.7878    0.4745 C   0  0  0  0  0  0  0  0  0  0  0  0
   23.5281    5.4698   -0.1583 N   0  0  0  0  0  0  0  0  0  0  0  0
   23.6279    5.0033   -1.4597 C   0  0  0  0  0  0  0  0  0  0  0  0
   22.7113    4.8631   -2.2552 O   0  0  0  0  0  0  0  0  0  0  0  0
   24.9929    4.6915   -1.9568 C   0  0  0  0  0  0  0  0  0  0  0  0
   25.2103    4.8695   -3.3319 C   0  0  0  0  0  0  0  0  0  0  0  0
   26.3894    4.4305   -3.9212 C   0  0  0  0  0  0  0  0  0  0  0  0
   27.3624    3.7977   -3.1421 C   0  0  0  0  0  0  0  0  0  0  0  0
   28.5914    3.3623   -3.8448 C   0  0  0  0  0  0  0  0  0  0  0  0
   28.5798    2.8597   -4.9523 O   0  0  0  0  0  0  0  0  0  0  0  0
   29.7203    3.6024   -3.1440 O   0  0  0  0  0  0  0  0  0  0  0  0
   27.1713    3.6374   -1.7564 C   0  0  0  0  0  0  0  0  0  0  0  0
   28.1214    2.9290   -0.9755 N   0  0  0  0  0  0  0  0  0  0  0  0
   28.6487    3.4456    0.1957 C   0  0  0  0  0  0  0  0  0  0  0  0
   28.3610    4.5580    0.6325 O   0  0  0  0  0  0  0  0  0  0  0  0
   29.6393    2.6081    0.9293 C   0  0  0  0  0  0  0  0  0  0  0  0
   29.7130    2.7776    2.3135 C   0  0  0  0  0  0  0  0  0  0  0  0
   30.5381    1.9559    3.0867 C   0  0  0  0  0  0  0  0  0  0  0  0
   31.3255    0.9706    2.5109 C   0  0  0  0  0  0  0  0  0  0  0  0
   32.0360    0.1614    3.3136 N   0  0  0  0  0  0  0  0  0  0  0  0
   32.8199   -0.7734    2.7358 C   0  0  0  0  0  0  0  0  0  0  0  0
   32.9710   -0.9079    1.3704 C   0  0  0  0  0  0  0  0  0  0  0  0
   32.2241   -0.0736    0.5429 C   0  0  0  0  0  0  0  0  0  0  0  0
   31.3424    0.8657    1.1050 C   0  0  0  0  0  0  0  0  0  0  0  0
   30.4919    1.6767    0.3159 C   0  0  0  0  0  0  0  0  0  0  0  0
   25.9859    4.1051   -1.1615 C   0  0  0  0  0  0  0  0  0  0  0  0
   22.3473    6.5907    1.6156 C   0  0  0  0  0  0  0  0  0  0  0  0
   21.1613    6.9807    2.2433 C   0  0  0  0  0  0  0  0  0  0  0  0
   15.3475    5.2654    3.0864 C   0  0  0  0  0  0  0  0  0  0  0  0
    0.0781    2.2755    1.1599 O   0  0  0  0  0  0  0  0  0  0  0  0
    0.9405    1.5740    0.6562 C   0  0  0  0  0  0  0  0  0  0  0  0
    1.2357    0.3353    1.1656 O   0  0  0  0  0  0  0  0  0  0  0  0
    1.7919    1.9378   -0.5680 C   0  0  0  0  0  0  0  0  0  0  0  0
    2.6937    0.9426   -0.8300 F   0  0  0  0  0  0  0  0  0  0  0  0
    1.0569    2.0917   -1.7003 F   0  0  0  0  0  0  0  0  0  0  0  0
    2.5132    3.0748   -0.3960 F   0  0  0  0  0  0  0  0  0  0  0  0
    6.1967    7.6274   -3.3941 H   0  0  0  0  0  0  0  0  0  0  0  0
    5.8299    6.2320   -2.3855 H   0  0  0  0  0  0  0  0  0  0  0  0
    7.3239    7.1924   -2.0989 H   0  0  0  0  0  0  0  0  0  0  0  0
    5.1603    8.6110    0.4047 H   0  0  0  0  0  0  0  0  0  0  0  0
    6.7136    7.8339    0.1703 H   0  0  0  0  0  0  0  0  0  0  0  0
    3.9680    6.4543   -0.1617 H   0  0  0  0  0  0  0  0  0  0  0  0
    4.8427    6.4407    1.3627 H   0  0  0  0  0  0  0  0  0  0  0  0
    7.6019    5.9464   -0.1577 H   0  0  0  0  0  0  0  0  0  0  0  0
    7.3717    4.2326   -0.2198 H   0  0  0  0  0  0  0  0  0  0  0  0
    6.6752    4.1283    2.1302 H   0  0  0  0  0  0  0  0  0  0  0  0
    6.7143    5.8984    2.2712 H   0  0  0  0  0  0  0  0  0  0  0  0
    8.4294    3.9965    3.8074 H   0  0  0  0  0  0  0  0  0  0  0  0
    8.4194    5.7719    3.9360 H   0  0  0  0  0  0  0  0  0  0  0  0
   10.7035    5.8919    3.0861 H   0  0  0  0  0  0  0  0  0  0  0  0
   10.7266    4.1210    2.8337 H   0  0  0  0  0  0  0  0  0  0  0  0
   12.7015    4.9265    2.9405 H   0  0  0  0  0  0  0  0  0  0  0  0
   14.3114    5.0023    7.6182 H   0  0  0  0  0  0  0  0  0  0  0  0
   10.0703    4.4516    8.4704 H   0  0  0  0  0  0  0  0  0  0  0  0
   10.1656    3.6602    6.9022 H   0  0  0  0  0  0  0  0  0  0  0  0
    9.9792    5.4628    7.0312 H   0  0  0  0  0  0  0  0  0  0  0  0
   16.8780    4.5408    5.5236 H   0  0  0  0  0  0  0  0  0  0  0  0
   16.4960    5.7790    6.7384 H   0  0  0  0  0  0  0  0  0  0  0  0
   17.6951    6.8569    4.9238 H   0  0  0  0  0  0  0  0  0  0  0  0
   16.0652    7.4541    4.9816 H   0  0  0  0  0  0  0  0  0  0  0  0
   17.2555    5.6773    1.5179 H   0  0  0  0  0  0  0  0  0  0  0  0
   18.0236    4.9854    2.9461 H   0  0  0  0  0  0  0  0  0  0  0  0
   18.9358    7.3437    3.4486 H   0  0  0  0  0  0  0  0  0  0  0  0
   18.2520    7.8834    1.9213 H   0  0  0  0  0  0  0  0  0  0  0  0
   18.9469    5.4061    0.1859 H   0  0  0  0  0  0  0  0  0  0  0  0
   20.9805    4.7071   -0.8675 H   0  0  0  0  0  0  0  0  0  0  0  0
   24.3739    5.7390    0.3193 H   0  0  0  0  0  0  0  0  0  0  0  0
   24.4377    5.3239   -3.9524 H   0  0  0  0  0  0  0  0  0  0  0  0
   26.5381    4.5696   -4.9918 H   0  0  0  0  0  0  0  0  0  0  0  0
   29.5825    4.1890   -2.3715 H   0  0  0  0  0  0  0  0  0  0  0  0
   28.5665    2.1245   -1.4065 H   0  0  0  0  0  0  0  0  0  0  0  0
   29.1081    3.5358    2.8094 H   0  0  0  0  0  0  0  0  0  0  0  0
   30.5608    2.0833    4.1662 H   0  0  0  0  0  0  0  0  0  0  0  0
   33.3400   -1.4305    3.4281 H   0  0  0  0  0  0  0  0  0  0  0  0
   33.6461   -1.6517    0.9607 H   0  0  0  0  0  0  0  0  0  0  0  0
   32.3317   -0.1655   -0.5343 H   0  0  0  0  0  0  0  0  0  0  0  0
   30.5184    1.5678   -0.7634 H   0  0  0  0  0  0  0  0  0  0  0  0
   25.8015    3.9157   -0.1055 H   0  0  0  0  0  0  0  0  0  0  0  0
   23.2927    6.9463    2.0159 H   0  0  0  0  0  0  0  0  0  0  0  0
   21.2147    7.6278    3.1168 H   0  0  0  0  0  0  0  0  0  0  0  0
   15.7819    4.2658    2.9423 H   0  0  0  0  0  0  0  0  0  0  0  0
   14.8213    5.5189    2.1574 H   0  0  0  0  0  0  0  0  0  0  0  0
    1.9480   -0.1154    0.6628 H   0  0  0  0  0  0  0  0  0  0  0  0
  1  2  1  0  0  0  0
  1 64  1  0  0  0  0
  1 65  1  0  0  0  0
  1 66  1  0  0  0  0
  2  3  1  0  0  0  0
  3  4  1  0  0  0  0
  3 67  1  0  0  0  0
  3 68  1  0  0  0  0
  4  5  1  0  0  0  0
  4 69  1  0  0  0  0
  4 70  1  0  0  0  0
  5  6  1  0  0  0  0
  6  7  1  0  0  0  0
  6 71  1  0  0  0  0
  6 72  1  0  0  0  0
  7  8  1  0  0  0  0
  7 73  1  0  0  0  0
  7 74  1  0  0  0  0
  8  9  1  0  0  0  0
  9 10  1  0  0  0  0
  9 75  1  0  0  0  0
  9 76  1  0  0  0  0
 10 11  1  0  0  0  0
 10 77  1  0  0  0  0
 10 78  1  0  0  0  0
 11 12  1  0  0  0  0
 12 13  1  0  0  0  0
 12 17  2  0  0  0  0
 13 14  2  0  0  0  0
 13 79  1  0  0  0  0
 14 15  1  0  0  0  0
 14 56  1  0  0  0  0
 15 16  2  0  0  0  0
 15 20  1  0  0  0  0
 16 17  1  0  0  0  0
 16 80  1  0  0  0  0
 17 18  1  0  0  0  0
 18 19  1  0  0  0  0
 19 81  1  0  0  0  0
 19 82  1  0  0  0  0
 19 83  1  0  0  0  0
 20 21  1  0  0  0  0
 20 84  1  0  0  0  0
 20 85  1  0  0  0  0
 21 22  1  0  0  0  0
 21 86  1  0  0  0  0
 21 87  1  0  0  0  0
 22 23  1  0  0  0  0
 22 56  1  0  0  0  0
 23 24  1  0  0  0  0
 23 88  1  0  0  0  0
 23 89  1  0  0  0  0
 24 25  1  0  0  0  0
 24 90  1  0  0  0  0
 24 91  1  0  0  0  0
 25 26  1  0  0  0  0
 25 55  2  0  0  0  0
 26 27  2  0  0  0  0
 26 92  1  0  0  0  0
 27 28  1  0  0  0  0
 27 93  1  0  0  0  0
 28 29  1  0  0  0  0
 28 54  2  0  0  0  0
 29 30  1  0  0  0  0
 29 94  1  0  0  0  0
 30 31  2  0  0  0  0
 30 32  1  0  0  0  0
 32 33  1  0  0  0  0
 32 53  2  0  0  0  0
 33 34  2  0  0  0  0
 33 95  1  0  0  0  0
 34 35  1  0  0  0  0
 34 96  1  0  0  0  0
 35 36  1  0  0  0  0
 35 39  2  0  0  0  0
 36 37  2  0  0  0  0
 36 38  1  0  0  0  0
 38 97  1  0  0  0  0
 39 40  1  0  0  0  0
 39 53  1  0  0  0  0
 40 41  1  0  0  0  0
 40 98  1  0  0  0  0
 41 42  2  0  0  0  0
 41 43  1  0  0  0  0
 43 44  1  0  0  0  0
 43 52  2  0  0  0  0
 44 45  2  0  0  0  0
 44 99  1  0  0  0  0
 45 46  1  0  0  0  0
 45100  1  0  0  0  0
 46 47  1  0  0  0  0
 46 51  2  0  0  0  0
 47 48  2  0  0  0  0
 48 49  1  0  0  0  0
 48101  1  0  0  0  0
 49 50  2  0  0  0  0
 49102  1  0  0  0  0
 50 51  1  0  0  0  0
 50103  1  0  0  0  0
 51 52  1  0  0  0  0
 52104  1  0  0  0  0
 53105  1  0  0  0  0
 54 55  1  0  0  0  0
 54106  1  0  0  0  0
 55107  1  0  0  0  0
 56108  1  0  0  0  0
 56109  1  0  0  0  0
 57 58  2  0  0  0  0
 58 59  1  0  0  0  0
 58 60  1  0  0  0  0
 59110  1  0  0  0  0
 60 61  1  0  0  0  0
 60 62  1  0  0  0  0
 60 63  1  0  0  0  0
M  END
>  <Energy>
310.26

$$$$