132576656
  -OEChem-03242010103D

 81 85  0     1  0  0  0  0  0999 V2000
   -4.2563    2.3678   -2.0953 O   0  0  0  0  0  0  0  0  0  0  0  0
   -3.7045    4.6970   -0.6856 O   0  0  0  0  0  0  0  0  0  0  0  0
    3.4187    1.0179    0.8249 O   0  0  0  0  0  0  0  0  0  0  0  0
    1.8023    1.1826   -2.5418 O   0  0  0  0  0  0  0  0  0  0  0  0
   -1.5845   -0.3141    2.7125 N   0  0  2  0  0  0  0  0  0  0  0  0
    1.0403   -1.4990    3.3094 N   0  0  0  0  0  0  0  0  0  0  0  0
    1.5061   -2.4895    2.5313 N   0  0  0  0  0  0  0  0  0  0  0  0
    2.5801   -2.0250    1.9023 N   0  0  0  0  0  0  0  0  0  0  0  0
    2.3338   -0.7488   -1.3197 N   0  0  0  0  0  0  0  0  0  0  0  0
   -2.0029    0.6988    3.6893 C   0  0  0  0  0  0  0  0  0  0  0  0
   -2.5418   -0.3680    1.5934 C   0  0  0  0  0  0  0  0  0  0  0  0
   -1.9193    2.0937    3.0613 C   0  0  0  0  0  0  0  0  0  0  0  0
   -2.8214    0.9848    0.9796 C   0  0  0  0  0  0  0  0  0  0  0  0
   -2.5645    2.1629    1.7017 C   0  0  0  0  0  0  0  0  0  0  0  0
   -1.4665   -1.6274    3.3450 C   0  0  0  0  0  0  0  0  0  0  0  0
   -0.1817   -1.7042    4.1690 C   0  0  0  0  0  0  0  0  0  0  0  0
   -3.4015    1.0680   -0.2935 C   0  0  0  0  0  0  0  0  0  0  0  0
   -2.8565    3.4064    1.1261 C   0  0  0  0  0  0  0  0  0  0  0  0
   -3.6976    2.3102   -0.8542 C   0  0  0  0  0  0  0  0  0  0  0  0
   -3.4232    3.4782   -0.1461 C   0  0  0  0  0  0  0  0  0  0  0  0
   -2.3878   -3.8986   -1.8171 C   0  0  0  0  0  0  0  0  0  0  0  0
   -1.1519   -3.0741   -1.6869 C   0  0  0  0  0  0  0  0  0  0  0  0
    1.8008   -0.3757    3.2008 C   0  0  0  0  0  0  0  0  0  0  0  0
   -2.0858   -5.2666   -2.5040 C   0  0  0  0  0  0  0  0  0  0  0  0
   -3.5387   -3.2550   -2.6599 C   0  0  0  0  0  0  0  0  0  0  0  0
   -3.0152   -4.2017   -0.4212 C   0  0  0  0  0  0  0  0  0  0  0  0
    2.7742   -0.7318    2.3013 C   0  0  0  0  0  0  0  0  0  0  0  0
   -1.0822   -1.8209   -2.2952 C   0  0  0  0  0  0  0  0  0  0  0  0
   -0.0656   -3.5564   -0.9568 C   0  0  0  0  0  0  0  0  0  0  0  0
    3.8919    0.0666    1.7821 C   0  0  0  0  0  0  0  0  0  0  0  0
    0.0736   -1.0498   -2.1734 C   0  0  0  0  0  0  0  0  0  0  0  0
    1.0904   -2.7853   -0.8348 C   0  0  0  0  0  0  0  0  0  0  0  0
    1.1599   -1.5320   -1.4432 C   0  0  0  0  0  0  0  0  0  0  0  0
   -4.5048    1.1262   -2.7520 C   0  0  0  0  0  0  0  0  0  0  0  0
   -2.6774    5.3164   -1.4575 C   0  0  0  0  0  0  0  0  0  0  0  0
    4.2661    1.3200   -0.2040 C   0  0  0  0  0  0  0  0  0  0  0  0
    3.8943    1.0901   -1.5286 C   0  0  0  0  0  0  0  0  0  0  0  0
    2.5933    0.5211   -1.8519 C   0  0  0  0  0  0  0  0  0  0  0  0
    5.5161    1.8673    0.0846 C   0  0  0  0  0  0  0  0  0  0  0  0
    4.7726    1.4077   -2.5646 C   0  0  0  0  0  0  0  0  0  0  0  0
    6.3945    2.1849   -0.9514 C   0  0  0  0  0  0  0  0  0  0  0  0
    6.0228    1.9551   -2.2760 C   0  0  0  0  0  0  0  0  0  0  0  0
   -1.3639    0.7068    4.5780 H   0  0  0  0  0  0  0  0  0  0  0  0
   -3.0275    0.5039    4.0350 H   0  0  0  0  0  0  0  0  0  0  0  0
   -3.4989   -0.7965    1.9200 H   0  0  0  0  0  0  0  0  0  0  0  0
   -2.1249   -1.0185    0.8149 H   0  0  0  0  0  0  0  0  0  0  0  0
   -0.8660    2.3832    2.9534 H   0  0  0  0  0  0  0  0  0  0  0  0
   -2.3973    2.8140    3.7360 H   0  0  0  0  0  0  0  0  0  0  0  0
   -1.4171   -2.4089    2.5749 H   0  0  0  0  0  0  0  0  0  0  0  0
   -2.3360   -1.8562    3.9737 H   0  0  0  0  0  0  0  0  0  0  0  0
   -0.0575   -2.7020    4.6053 H   0  0  0  0  0  0  0  0  0  0  0  0
   -0.1153   -0.9700    4.9767 H   0  0  0  0  0  0  0  0  0  0  0  0
   -3.5977    0.1253   -0.7940 H   0  0  0  0  0  0  0  0  0  0  0  0
   -2.6410    4.3213    1.6733 H   0  0  0  0  0  0  0  0  0  0  0  0
   -1.6465   -5.1148   -3.4970 H   0  0  0  0  0  0  0  0  0  0  0  0
   -1.3829   -5.8712   -1.9205 H   0  0  0  0  0  0  0  0  0  0  0  0
   -3.8801   -2.3113   -2.2184 H   0  0  0  0  0  0  0  0  0  0  0  0
   -3.2225   -3.0634   -3.6919 H   0  0  0  0  0  0  0  0  0  0  0  0
   -3.2635   -3.2722    0.1044 H   0  0  0  0  0  0  0  0  0  0  0  0
   -2.3331   -4.7710    0.2197 H   0  0  0  0  0  0  0  0  0  0  0  0
   -3.9355   -4.7895   -0.5170 H   0  0  0  0  0  0  0  0  0  0  0  0
   -4.4104   -3.9188   -2.7097 H   0  0  0  0  0  0  0  0  0  0  0  0
   -2.9985   -5.8611   -2.6270 H   0  0  0  0  0  0  0  0  0  0  0  0
    1.5929    0.5344    3.7453 H   0  0  0  0  0  0  0  0  0  0  0  0
   -1.8970   -1.3995   -2.8733 H   0  0  0  0  0  0  0  0  0  0  0  0
   -0.0901   -4.5314   -0.4786 H   0  0  0  0  0  0  0  0  0  0  0  0
    0.0516   -0.0906   -2.6706 H   0  0  0  0  0  0  0  0  0  0  0  0
    1.9395   -3.1915   -0.2942 H   0  0  0  0  0  0  0  0  0  0  0  0
    4.3762    0.6106    2.6014 H   0  0  0  0  0  0  0  0  0  0  0  0
    4.6391   -0.6016    1.3337 H   0  0  0  0  0  0  0  0  0  0  0  0
   -4.9510    1.3602   -3.7243 H   0  0  0  0  0  0  0  0  0  0  0  0
   -5.2348    0.5185   -2.2064 H   0  0  0  0  0  0  0  0  0  0  0  0
   -3.5753    0.5833   -2.9528 H   0  0  0  0  0  0  0  0  0  0  0  0
   -3.0554    6.2742   -1.8252 H   0  0  0  0  0  0  0  0  0  0  0  0
   -2.4109    4.6922   -2.3163 H   0  0  0  0  0  0  0  0  0  0  0  0
   -1.7932    5.5028   -0.8396 H   0  0  0  0  0  0  0  0  0  0  0  0
    3.0765   -1.1803   -0.7735 H   0  0  0  0  0  0  0  0  0  0  0  0
    5.8165    2.0604    1.1109 H   0  0  0  0  0  0  0  0  0  0  0  0
    4.4962    1.2325   -3.6012 H   0  0  0  0  0  0  0  0  0  0  0  0
    7.3671    2.6130   -0.7269 H   0  0  0  0  0  0  0  0  0  0  0  0
    6.7067    2.2025   -3.0826 H   0  0  0  0  0  0  0  0  0  0  0  0
  1 19  1  0  0  0  0
  1 34  1  0  0  0  0
  2 20  1  0  0  0  0
  2 35  1  0  0  0  0
  3 30  1  0  0  0  0
  3 36  1  0  0  0  0
  4 38  2  0  0  0  0
  5 10  1  0  0  0  0
  5 11  1  0  0  0  0
  5 15  1  0  0  0  0
  6  7  1  0  0  0  0
  6 16  1  0  0  0  0
  6 23  1  0  0  0  0
  7  8  2  0  0  0  0
  8 27  1  0  0  0  0
  9 33  1  0  0  0  0
  9 38  1  0  0  0  0
  9 77  1  0  0  0  0
 10 12  1  0  0  0  0
 10 43  1  0  0  0  0
 10 44  1  0  0  0  0
 11 13  1  0  0  0  0
 11 45  1  0  0  0  0
 11 46  1  0  0  0  0
 12 14  1  0  0  0  0
 12 47  1  0  0  0  0
 12 48  1  0  0  0  0
 13 14  1  0  0  0  0
 13 17  2  0  0  0  0
 14 18  2  0  0  0  0
 15 16  1  0  0  0  0
 15 49  1  0  0  0  0
 15 50  1  0  0  0  0
 16 51  1  0  0  0  0
 16 52  1  0  0  0  0
 17 19  1  0  0  0  0
 17 53  1  0  0  0  0
 18 20  1  0  0  0  0
 18 54  1  0  0  0  0
 19 20  2  0  0  0  0
 21 22  1  0  0  0  0
 21 24  1  0  0  0  0
 21 25  1  0  0  0  0
 21 26  1  0  0  0  0
 22 28  2  0  0  0  0
 22 29  1  0  0  0  0
 23 27  2  0  0  0  0
 23 64  1  0  0  0  0
 24 55  1  0  0  0  0
 24 56  1  0  0  0  0
 24 63  1  0  0  0  0
 25 57  1  0  0  0  0
 25 58  1  0  0  0  0
 25 62  1  0  0  0  0
 26 59  1  0  0  0  0
 26 60  1  0  0  0  0
 26 61  1  0  0  0  0
 27 30  1  0  0  0  0
 28 31  1  0  0  0  0
 28 65  1  0  0  0  0
 29 32  2  0  0  0  0
 29 66  1  0  0  0  0
 30 69  1  0  0  0  0
 30 70  1  0  0  0  0
 31 33  2  0  0  0  0
 31 67  1  0  0  0  0
 32 33  1  0  0  0  0
 32 68  1  0  0  0  0
 34 71  1  0  0  0  0
 34 72  1  0  0  0  0
 34 73  1  0  0  0  0
 35 74  1  0  0  0  0
 35 75  1  0  0  0  0
 35 76  1  0  0  0  0
 36 37  1  0  0  0  0
 36 39  2  0  0  0  0
 37 38  1  0  0  0  0
 37 40  2  0  0  0  0
 39 41  1  0  0  0  0
 39 78  1  0  0  0  0
 40 42  1  0  0  0  0
 40 79  1  0  0  0  0
 41 42  2  0  0  0  0
 41 80  1  0  0  0  0
 42 81  1  0  0  0  0
M  END
> <PUBCHEM_COMPOUND_CID>
132576656

> <PUBCHEM_CONFORMER_RMSD>
1.4

> <PUBCHEM_CONFORMER_DIVERSEORDER>
1
177
171
11
45
209
77
137
114
145
143
12
235
3
238
99
122
42
141
83
97
58
224
156
28
32
107
186
30
133
188
34
57
67
136
181
89
146
227
196
154
2
31
37
220
112
197
221
21
148
228
160
135
155
172
14
75
198
139
76
93
158
190
18
129
102
27
127
117
19
236
62
189
219
193
110
108
126
68
222
5
33
163
157
9
61
168
210
229
142
47
140
218
60
29
164
211
17
24
90
54
237
167
124
86
50
203
225
55
119
212
52
92
84
87
69
162
46
103
15
79
232
7
149
161
22
151
185
132
214
59
175
223
70
178
183
78
4
121
73
100
153
81
234
147
63
187
106
95
16
204
216
43
226
192
206
26
170
200
41
6
134
23
109
207
123
118
25
74
230
51
179
38
166
231
130
10
116
13
20
138
201
8
101
180
104
113
217
131
80
49
173
65
53
91
174
88
94
191
233
202
169
213
64
82
40
208
205
182
176
195
199
115
35
105
165
125
144
159
128
184
56
152
66
150
39
194
85
111
36
215
44
72
120
48
98
71
96

> <PUBCHEM_MMFF94_PARTIAL_CHARGES>
51
1 -0.36
10 0.27
11 0.41
12 0.14
13 -0.14
14 -0.14
15 0.27
16 0.26
17 -0.15
18 -0.15
19 0.08
2 -0.36
20 0.08
21 0.14
22 -0.14
23 -0.3
27 0.05
28 -0.15
29 -0.15
3 -0.36
30 0.46
31 -0.15
32 -0.15
33 0.12
34 0.28
35 0.28
36 0.08
37 0.09
38 0.54
39 -0.15
4 -0.57
40 -0.15
41 -0.15
42 -0.15
5 -0.81
53 0.15
54 0.15
6 0.31
64 0.15
65 0.15
66 0.15
67 0.15
68 0.15
7 -0.42
77 0.37
78 0.15
79 0.15
8 -0.23
80 0.15
81 0.15
9 -0.55

> <PUBCHEM_EFFECTIVE_ROTOR_COUNT>
12.8

> <PUBCHEM_PHARMACOPHORE_FEATURES>
12
1 1 acceptor
1 2 acceptor
1 3 acceptor
1 4 acceptor
1 5 cation
1 9 donor
4 21 24 25 26 hydrophobe
5 6 7 8 23 27 rings
6 13 14 17 18 19 20 rings
6 22 28 29 31 32 33 rings
6 36 37 39 40 41 42 rings
6 5 10 11 12 13 14 rings

> <PUBCHEM_HEAVY_ATOM_COUNT>
42

> <PUBCHEM_ATOM_DEF_STEREO_COUNT>
0

> <PUBCHEM_ATOM_UDEF_STEREO_COUNT>
0

> <PUBCHEM_BOND_DEF_STEREO_COUNT>
0

> <PUBCHEM_BOND_UDEF_STEREO_COUNT>
0

> <PUBCHEM_ISOTOPIC_ATOM_COUNT>
0

> <PUBCHEM_COMPONENT_COUNT>
1

> <PUBCHEM_CACTVS_TAUTO_COUNT>
12

> <PUBCHEM_CONFORMER_ID>
07E6F59000000001

> <PUBCHEM_MMFF94_ENERGY>
143.396

> <PUBCHEM_FEATURE_SELFOVERLAP>
60.924

> <PUBCHEM_SHAPE_FINGERPRINT>
11170278 61 17241302713387129725
11421498 54 18118949532733377914
11434127 23 17825141201113158684
11763715 3 17264637802935258534
12128747 34 15289275789644316365
12156800 1 18054194851945037195
12355185 1 18046352099902668909
12539745 222 17631461240918347596
12788726 201 18265318685512965119
13383661 66 14905896180890134917
15219648 65 17768230659553654398
15444296 8 16833971209678514506
15444296 9 17123079069434671480
15484559 13 14322795229243954306
15513586 35 17396735401918129388
15975801 100 18411707612121476640
17909252 39 14045729414330132048
19309040 13 18041566823329817916
20587220 17 16301166322628285159
20764821 26 17629197113462053809
21860390 5 17755012008720176130
35225 105 17487305292495258242
376196 1 17974584506572852877
4112364 45 17387678420308526445
469060 322 17980506742393269399
50150288 127 18260827128957606787
550186 7 17755343163868448716
57527358 35 17459452383106217203
5951187 136 17612033676828670281

> <PUBCHEM_SHAPE_MULTIPOLES>
815.96
10.29
6.48
4.91
15.86
1.13
-4.59
-8.2
7.27
-10.54
4.7
-0.65
0.67
-2.15

> <PUBCHEM_SHAPE_SELFOVERLAP>
1751.511

> <PUBCHEM_SHAPE_VOLUME>
451.2

> <PUBCHEM_COORDINATE_TYPE>
2
5
10

$$$$