20963109
  -OEChem-03242010103D

 50 53  0     0  0  0  0  0  0999 V2000
   -3.2344   -2.1466   -1.7554 O   0  0  0  0  0  0  0  0  0  0  0  0
   -5.3928   -2.3136   -0.0124 O   0  0  0  0  0  0  0  0  0  0  0  0
    4.7662   -4.1092    0.3000 O   0  0  0  0  0  0  0  0  0  0  0  0
   -1.5568    1.6467    0.6716 N   0  0  0  0  0  0  0  0  0  0  0  0
    0.5028    0.5353    0.4279 N   0  0  0  0  0  0  0  0  0  0  0  0
    2.4931    1.7531   -0.1741 N   0  0  0  0  0  0  0  0  0  0  0  0
    0.4134    2.9232    0.0642 C   0  0  0  0  0  0  0  0  0  0  0  0
   -0.1712    1.6998    0.3795 C   0  0  0  0  0  0  0  0  0  0  0  0
    1.7899    2.8983   -0.2135 C   0  0  0  0  0  0  0  0  0  0  0  0
    1.8114    0.6339    0.1443 C   0  0  0  0  0  0  0  0  0  0  0  0
   -2.5242    0.6448    0.4955 C   0  0  0  0  0  0  0  0  0  0  0  0
    2.5712   -0.5882    0.1846 C   0  0  0  0  0  0  0  0  0  0  0  0
   -0.3118    4.1266    0.0199 C   0  0  0  0  0  0  0  0  0  0  0  0
    2.4102    4.1036   -0.5333 C   0  0  0  0  0  0  0  0  0  0  0  0
   -2.4032   -0.2660   -0.5541 C   0  0  0  0  0  0  0  0  0  0  0  0
   -3.6067    0.5598    1.3711 C   0  0  0  0  0  0  0  0  0  0  0  0
    0.3334    5.3164   -0.3026 C   0  0  0  0  0  0  0  0  0  0  0  0
   -3.3643   -1.2617   -0.7279 C   0  0  0  0  0  0  0  0  0  0  0  0
    1.6959    5.3045   -0.5795 C   0  0  0  0  0  0  0  0  0  0  0  0
   -4.4467   -1.3466    0.1479 C   0  0  0  0  0  0  0  0  0  0  0  0
    1.9572   -1.8031   -0.1203 C   0  0  0  0  0  0  0  0  0  0  0  0
    3.9229   -0.5568    0.5277 C   0  0  0  0  0  0  0  0  0  0  0  0
   -4.5680   -0.4358    1.1974 C   0  0  0  0  0  0  0  0  0  0  0  0
    2.6949   -2.9862   -0.0824 C   0  0  0  0  0  0  0  0  0  0  0  0
    4.6607   -1.7399    0.5657 C   0  0  0  0  0  0  0  0  0  0  0  0
    4.0466   -2.9547    0.2607 C   0  0  0  0  0  0  0  0  0  0  0  0
   -2.0995   -1.9911   -2.6052 C   0  0  0  0  0  0  0  0  0  0  0  0
   -6.4669   -2.3312    0.9258 C   0  0  0  0  0  0  0  0  0  0  0  0
    4.0765   -5.3156   -0.0232 C   0  0  0  0  0  0  0  0  0  0  0  0
   -1.8556    2.3870    1.3006 H   0  0  0  0  0  0  0  0  0  0  0  0
   -1.3782    4.1691    0.2226 H   0  0  0  0  0  0  0  0  0  0  0  0
    3.4758    4.1213   -0.7542 H   0  0  0  0  0  0  0  0  0  0  0  0
   -1.5552   -0.1500   -1.2198 H   0  0  0  0  0  0  0  0  0  0  0  0
   -3.7119    1.2631    2.1935 H   0  0  0  0  0  0  0  0  0  0  0  0
   -0.2234    6.2477   -0.3398 H   0  0  0  0  0  0  0  0  0  0  0  0
    2.2074    6.2287   -0.8327 H   0  0  0  0  0  0  0  0  0  0  0  0
    0.9079   -1.8587   -0.4002 H   0  0  0  0  0  0  0  0  0  0  0  0
    4.4285    0.3721    0.7806 H   0  0  0  0  0  0  0  0  0  0  0  0
   -5.3808   -0.4412    1.9154 H   0  0  0  0  0  0  0  0  0  0  0  0
    2.1565   -3.8941   -0.3322 H   0  0  0  0  0  0  0  0  0  0  0  0
    5.7127   -1.7098    0.8361 H   0  0  0  0  0  0  0  0  0  0  0  0
   -2.1231   -1.0356   -3.1403 H   0  0  0  0  0  0  0  0  0  0  0  0
   -1.1618   -2.1423   -2.0596 H   0  0  0  0  0  0  0  0  0  0  0  0
   -2.1550   -2.7796   -3.3630 H   0  0  0  0  0  0  0  0  0  0  0  0
   -6.1117   -2.5318    1.9424 H   0  0  0  0  0  0  0  0  0  0  0  0
   -7.0692   -1.4183    0.8669 H   0  0  0  0  0  0  0  0  0  0  0  0
   -7.1230   -3.1629    0.6488 H   0  0  0  0  0  0  0  0  0  0  0  0
    4.8001   -6.1334    0.0582 H   0  0  0  0  0  0  0  0  0  0  0  0
    3.7169   -5.3087   -1.0578 H   0  0  0  0  0  0  0  0  0  0  0  0
    3.2752   -5.5254    0.6934 H   0  0  0  0  0  0  0  0  0  0  0  0
  1 18  1  0  0  0  0
  1 27  1  0  0  0  0
  2 20  1  0  0  0  0
  2 28  1  0  0  0  0
  3 26  1  0  0  0  0
  3 29  1  0  0  0  0
  4  8  1  0  0  0  0
  4 11  1  0  0  0  0
  4 30  1  0  0  0  0
  5  8  2  0  0  0  0
  5 10  1  0  0  0  0
  6  9  1  0  0  0  0
  6 10  2  0  0  0  0
  7  8  1  0  0  0  0
  7  9  1  0  0  0  0
  7 13  2  0  0  0  0
  9 14  2  0  0  0  0
 10 12  1  0  0  0  0
 11 15  2  0  0  0  0
 11 16  1  0  0  0  0
 12 21  2  0  0  0  0
 12 22  1  0  0  0  0
 13 17  1  0  0  0  0
 13 31  1  0  0  0  0
 14 19  1  0  0  0  0
 14 32  1  0  0  0  0
 15 18  1  0  0  0  0
 15 33  1  0  0  0  0
 16 23  2  0  0  0  0
 16 34  1  0  0  0  0
 17 19  2  0  0  0  0
 17 35  1  0  0  0  0
 18 20  2  0  0  0  0
 19 36  1  0  0  0  0
 20 23  1  0  0  0  0
 21 24  1  0  0  0  0
 21 37  1  0  0  0  0
 22 25  2  0  0  0  0
 22 38  1  0  0  0  0
 23 39  1  0  0  0  0
 24 26  2  0  0  0  0
 24 40  1  0  0  0  0
 25 26  1  0  0  0  0
 25 41  1  0  0  0  0
 27 42  1  0  0  0  0
 27 43  1  0  0  0  0
 27 44  1  0  0  0  0
 28 45  1  0  0  0  0
 28 46  1  0  0  0  0
 28 47  1  0  0  0  0
 29 48  1  0  0  0  0
 29 49  1  0  0  0  0
 29 50  1  0  0  0  0
M  END
> <PUBCHEM_COMPOUND_CID>
20963109

> <PUBCHEM_CONFORMER_RMSD>
0.8

> <PUBCHEM_CONFORMER_DIVERSEORDER>
1
50
53
25
39
44
2
19
3
54
20
55
46
40
12
32
23
36
49
24
48
26
38
14
42
31
17
9
37
35
8
45
18
33
43
15
34
21
5
10
28
52
41
51
11
22
13
7
4
47
27
29
16
30
6

> <PUBCHEM_MMFF94_PARTIAL_CHARGES>
39
1 -0.36
10 0.62
11 0.1
13 -0.15
14 -0.15
15 -0.15
16 -0.15
17 -0.15
18 0.08
19 -0.15
2 -0.36
20 0.08
21 -0.15
22 -0.15
23 -0.15
24 -0.15
25 -0.15
26 0.08
27 0.28
28 0.28
29 0.28
3 -0.36
30 0.4
31 0.15
32 0.15
33 0.15
34 0.15
35 0.15
36 0.15
37 0.15
38 0.15
39 0.15
4 -0.6
40 0.15
41 0.15
5 -0.62
6 -0.62
8 0.41
9 0.31

> <PUBCHEM_EFFECTIVE_ROTOR_COUNT>
6

> <PUBCHEM_PHARMACOPHORE_FEATURES>
10
1 1 acceptor
1 2 acceptor
1 3 acceptor
1 4 donor
3 4 5 8 cation
3 5 6 10 cation
6 11 15 16 18 20 23 rings
6 12 21 22 24 25 26 rings
6 5 6 7 8 9 10 rings
6 7 9 13 14 17 19 rings

> <PUBCHEM_HEAVY_ATOM_COUNT>
29

> <PUBCHEM_ATOM_DEF_STEREO_COUNT>
0

> <PUBCHEM_ATOM_UDEF_STEREO_COUNT>
0

> <PUBCHEM_BOND_DEF_STEREO_COUNT>
0

> <PUBCHEM_BOND_UDEF_STEREO_COUNT>
0

> <PUBCHEM_ISOTOPIC_ATOM_COUNT>
0

> <PUBCHEM_COMPONENT_COUNT>
1

> <PUBCHEM_CACTVS_TAUTO_COUNT>
3

> <PUBCHEM_CONFORMER_ID>
013FDF2500000001

> <PUBCHEM_MMFF94_ENERGY>
130.1599

> <PUBCHEM_FEATURE_SELFOVERLAP>
50.923

> <PUBCHEM_SHAPE_FINGERPRINT>
10411042 1 18337112267731645058
10462674 125 16549958474801688622
10622 236 17915722362471638991
1100329 8 17978508973316796472
11014199 57 18265337209653541026
11719270 70 18050000288084289304
11763715 3 18119555170840624604
12107183 9 18269007405886137113
12422481 6 17559394643479869990
12553582 1 18411419492735121222
13004483 165 18194673774726826920
13009979 54 18059869354167917537
13690498 29 17981900644655674574
13785724 45 18269289988468498199
138480 1 18409731780962407192
13911987 19 17827106144920587980
13955234 65 18195250150932742729
14790565 3 17184757333898939705
14844126 61 17758681044730729280
15042514 8 17905051348267022280
15230672 131 16608015609447731270
15250474 111 17912077554413384295
15400415 2 17617382123063088073
16719943 64 16752402389462901594
16989713 51 17983848996503558734
17138139 8 16764500891449765453
17492 89 18410577314458215043
1813 80 18341905060344101094
19319366 153 17838621407116832301
20028762 73 18055076716590735844
21133410 171 17249158633405309955
21133410 52 18054206999020457166
21133410 58 18337940260930046143
21796203 349 18049481177051352218
22033318 11 17983331229668531721
22849339 104 17331416272390874094
229767 44 17838348380372974889
4409770 3 17687464563961073957
44280117 145 17904775380435937142
44880168 125 17130423476533403094
5080951 261 17176010225501254762
5265222 85 16320637337705791414
5309563 4 18409450250082595514
56633871 153 18197226845406579923
613672 6 18192405546642304418
6677587 24 16173331873180679277
6700243 42 17554079566475631150
6898599 12 17542519236854615580
70251023 43 18335702780109148425
7970288 3 18337392643118230467

> <PUBCHEM_SHAPE_MULTIPOLES>
564.26
10.74
7.92
1.2
9.94
6.24
0.65
-16.38
-2.59
-9.7
1.33
1.41
-0.68
-1.29

> <PUBCHEM_SHAPE_SELFOVERLAP>
1245.21

> <PUBCHEM_SHAPE_VOLUME>
302

> <PUBCHEM_COORDINATE_TYPE>
2
5
10

$$$$