127044754
  -OEChem-03242010103D

 66 70  0     0  0  0  0  0  0999 V2000
    2.5147    0.4979   -3.0619 O   0  0  0  0  0  0  0  0  0  0  0  0
    4.0148    2.7196   -2.3285 O   0  0  0  0  0  0  0  0  0  0  0  0
   -0.5026   -5.3220   -0.0341 O   0  0  0  0  0  0  0  0  0  0  0  0
    3.6120    0.8233    1.3840 O   0  0  0  0  0  0  0  0  0  0  0  0
   -3.7601   -0.3800   -0.5259 N   0  0  0  0  0  0  0  0  0  0  0  0
   -1.7888    0.8980   -0.6555 N   0  0  0  0  0  0  0  0  0  0  0  0
   -1.5675    2.9464    0.5943 N   0  0  0  0  0  0  0  0  0  0  0  0
   -3.5935    1.6732    0.7531 C   0  0  0  0  0  0  0  0  0  0  0  0
   -3.0224    0.7642   -0.1331 C   0  0  0  0  0  0  0  0  0  0  0  0
   -2.8034    2.7820    1.0975 C   0  0  0  0  0  0  0  0  0  0  0  0
   -1.1274    1.9957   -0.2548 C   0  0  0  0  0  0  0  0  0  0  0  0
    0.1966    2.1788   -0.7896 C   0  0  0  0  0  0  0  0  0  0  0  0
   -3.3702   -1.6745   -0.9046 C   0  0  0  0  0  0  0  0  0  0  0  0
   -4.8845    1.5116    1.2854 C   0  0  0  0  0  0  0  0  0  0  0  0
   -3.3412    3.7137    1.9822 C   0  0  0  0  0  0  0  0  0  0  0  0
   -2.2029   -2.2319   -0.3825 C   0  0  0  0  0  0  0  0  0  0  0  0
    0.7266    1.2412   -1.6758 C   0  0  0  0  0  0  0  0  0  0  0  0
   -1.8147   -3.5175   -0.7597 C   0  0  0  0  0  0  0  0  0  0  0  0
    0.9490    3.2945   -0.4223 C   0  0  0  0  0  0  0  0  0  0  0  0
   -5.3968    2.4580    2.1674 C   0  0  0  0  0  0  0  0  0  0  0  0
   -4.6241    3.5601    2.5159 C   0  0  0  0  0  0  0  0  0  0  0  0
   -4.1493   -2.4027   -1.8036 C   0  0  0  0  0  0  0  0  0  0  0  0
    2.0090    1.4191   -2.1951 C   0  0  0  0  0  0  0  0  0  0  0  0
    2.7614    2.5347   -1.8278 C   0  0  0  0  0  0  0  0  0  0  0  0
    2.2316    3.4723   -0.9414 C   0  0  0  0  0  0  0  0  0  0  0  0
   -2.5939   -4.2455   -1.6589 C   0  0  0  0  0  0  0  0  0  0  0  0
   -3.7613   -3.6882   -2.1808 C   0  0  0  0  0  0  0  0  0  0  0  0
   -0.5977   -4.0987   -0.2152 C   0  0  0  0  0  0  0  0  0  0  0  0
    0.5344   -3.1822    0.1549 C   0  0  0  0  0  0  0  0  0  0  0  0
    2.4848   -2.6496    1.6123 C   0  0  0  0  0  0  0  0  0  0  0  0
    1.3593   -3.4900    1.1667 C   0  0  0  0  0  0  0  0  0  0  0  0
    2.5161   -1.2944    1.2835 C   0  0  0  0  0  0  0  0  0  0  0  0
    3.5190   -3.2092    2.3627 C   0  0  0  0  0  0  0  0  0  0  0  0
    3.5815   -0.4988    1.7050 C   0  0  0  0  0  0  0  0  0  0  0  0
    3.2433   -0.5909   -2.4978 C   0  0  0  0  0  0  0  0  0  0  0  0
    4.5845   -2.4136    2.7841 C   0  0  0  0  0  0  0  0  0  0  0  0
    4.6157   -1.0585    2.4553 C   0  0  0  0  0  0  0  0  0  0  0  0
    4.7171    3.8858   -1.9026 C   0  0  0  0  0  0  0  0  0  0  0  0
    4.7311    1.5781    1.8469 C   0  0  0  0  0  0  0  0  0  0  0  0
   -4.7235   -0.1643   -0.7676 H   0  0  0  0  0  0  0  0  0  0  0  0
   -5.5106    0.6584    1.0401 H   0  0  0  0  0  0  0  0  0  0  0  0
   -2.7565    4.5851    2.2711 H   0  0  0  0  0  0  0  0  0  0  0  0
   -1.6205   -1.6705    0.3436 H   0  0  0  0  0  0  0  0  0  0  0  0
    0.1698    0.3593   -1.9843 H   0  0  0  0  0  0  0  0  0  0  0  0
    0.5754    4.0489    0.2654 H   0  0  0  0  0  0  0  0  0  0  0  0
   -6.3927    2.3360    2.5823 H   0  0  0  0  0  0  0  0  0  0  0  0
   -5.0607   -1.9801   -2.2190 H   0  0  0  0  0  0  0  0  0  0  0  0
   -5.0163    4.3033    3.2041 H   0  0  0  0  0  0  0  0  0  0  0  0
    2.7587    4.3608   -0.6114 H   0  0  0  0  0  0  0  0  0  0  0  0
   -2.3052   -5.2469   -1.9678 H   0  0  0  0  0  0  0  0  0  0  0  0
   -4.3673   -4.2547   -2.8818 H   0  0  0  0  0  0  0  0  0  0  0  0
    0.6188   -2.2698   -0.4242 H   0  0  0  0  0  0  0  0  0  0  0  0
    1.2254   -4.4214    1.7118 H   0  0  0  0  0  0  0  0  0  0  0  0
    1.7200   -0.8162    0.7201 H   0  0  0  0  0  0  0  0  0  0  0  0
    3.5119   -4.2638    2.6272 H   0  0  0  0  0  0  0  0  0  0  0  0
    4.0519   -0.2296   -1.8543 H   0  0  0  0  0  0  0  0  0  0  0  0
    2.5710   -1.2404   -1.9296 H   0  0  0  0  0  0  0  0  0  0  0  0
    3.6798   -1.1710   -3.3154 H   0  0  0  0  0  0  0  0  0  0  0  0
    5.3897   -2.8504    3.3679 H   0  0  0  0  0  0  0  0  0  0  0  0
    5.4728   -0.4990    2.8141 H   0  0  0  0  0  0  0  0  0  0  0  0
    5.6938    3.8721   -2.3975 H   0  0  0  0  0  0  0  0  0  0  0  0
    4.9075    3.8712   -0.8242 H   0  0  0  0  0  0  0  0  0  0  0  0
    4.2105    4.8021   -2.2244 H   0  0  0  0  0  0  0  0  0  0  0  0
    4.5887    2.6087    1.5061 H   0  0  0  0  0  0  0  0  0  0  0  0
    5.6671    1.2211    1.4043 H   0  0  0  0  0  0  0  0  0  0  0  0
    4.7727    1.6071    2.9410 H   0  0  0  0  0  0  0  0  0  0  0  0
  1 23  1  0  0  0  0
  1 35  1  0  0  0  0
  2 24  1  0  0  0  0
  2 38  1  0  0  0  0
  3 28  2  0  0  0  0
  4 34  1  0  0  0  0
  4 39  1  0  0  0  0
  5  9  1  0  0  0  0
  5 13  1  0  0  0  0
  5 40  1  0  0  0  0
  6  9  2  0  0  0  0
  6 11  1  0  0  0  0
  7 10  1  0  0  0  0
  7 11  2  0  0  0  0
  8  9  1  0  0  0  0
  8 10  1  0  0  0  0
  8 14  2  0  0  0  0
 10 15  2  0  0  0  0
 11 12  1  0  0  0  0
 12 17  2  0  0  0  0
 12 19  1  0  0  0  0
 13 16  1  0  0  0  0
 13 22  2  0  0  0  0
 14 20  1  0  0  0  0
 14 41  1  0  0  0  0
 15 21  1  0  0  0  0
 15 42  1  0  0  0  0
 16 18  2  0  0  0  0
 16 43  1  0  0  0  0
 17 23  1  0  0  0  0
 17 44  1  0  0  0  0
 18 26  1  0  0  0  0
 18 28  1  0  0  0  0
 19 25  2  0  0  0  0
 19 45  1  0  0  0  0
 20 21  2  0  0  0  0
 20 46  1  0  0  0  0
 21 48  1  0  0  0  0
 22 27  1  0  0  0  0
 22 47  1  0  0  0  0
 23 24  2  0  0  0  0
 24 25  1  0  0  0  0
 25 49  1  0  0  0  0
 26 27  2  0  0  0  0
 26 50  1  0  0  0  0
 27 51  1  0  0  0  0
 28 29  1  0  0  0  0
 29 31  2  0  0  0  0
 29 52  1  0  0  0  0
 30 31  1  0  0  0  0
 30 32  2  0  0  0  0
 30 33  1  0  0  0  0
 31 53  1  0  0  0  0
 32 34  1  0  0  0  0
 32 54  1  0  0  0  0
 33 36  2  0  0  0  0
 33 55  1  0  0  0  0
 34 37  2  0  0  0  0
 35 56  1  0  0  0  0
 35 57  1  0  0  0  0
 35 58  1  0  0  0  0
 36 37  1  0  0  0  0
 36 59  1  0  0  0  0
 37 60  1  0  0  0  0
 38 61  1  0  0  0  0
 38 62  1  0  0  0  0
 38 63  1  0  0  0  0
 39 64  1  0  0  0  0
 39 65  1  0  0  0  0
 39 66  1  0  0  0  0
M  END
> <PUBCHEM_COMPOUND_CID>
127044754

> <PUBCHEM_CONFORMER_RMSD>
1

> <PUBCHEM_CONFORMER_DIVERSEORDER>
2
210
172
203
169
195
11
197
179
223
95
56
156
91
189
71
241
201
188
139
151
230
175
183
263
77
165
66
43
145
124
246
217
194
88
26
61
260
130
146
200
254
152
33
16
97
136
205
112
292
74
229
142
126
80
261
133
168
8
202
149
251
59
277
4
155
206
109
67
204
108
192
285
278
157
207
7
3
158
275
222
120
259
63
238
76
103
132
127
35
94
73
224
233
291
84
147
221
90
209
140
27
186
237
49
180
106
248
37
143
12
283
190
115
137
134
163
153
242
227
6
82
218
131
116
161
279
48
122
199
119
258
98
17
176
214
232
85
1
287
93
141
14
154
81
47
216
83
166
159
101
187
107
125
102
111
64
170
236
281
243
174
235
25
121
29
249
99
274
250
62
231
87
252
129
110
144
105
19
75
41
294
39
272
264
9
191
118
57
270
220
18
135
244
271
113
22
68
38
72
240
245
69
23
60
34
21
89
173
289
208
70
50
100
234
32
290
265
225
20
55
162
92
167
273
128
86
280
247
150
171
30
104
138
267
58
219
276
24
46
51
114
79
42
160
286
269
96
282
284
28
257
65
40
193
262
266
117
215
44
213
211
123
177
78
268
253
36
45
184
288
54
164
52
196
53
256
182
10
198
293
228
212
148
178
181
31
239
15
5
255
13
226
185

> <PUBCHEM_MMFF94_PARTIAL_CHARGES>
55
1 -0.36
10 0.31
11 0.62
13 0.1
14 -0.15
15 -0.15
16 -0.15
17 -0.15
18 0.09
19 -0.15
2 -0.36
20 -0.15
21 -0.15
22 -0.15
23 0.08
24 0.08
25 -0.15
26 -0.15
27 -0.15
28 0.47
29 -0.14
3 -0.57
30 0.03
31 -0.18
32 -0.15
33 -0.15
34 0.08
35 0.28
36 -0.15
37 -0.15
38 0.28
39 0.28
4 -0.36
40 0.4
41 0.15
42 0.15
43 0.15
44 0.15
45 0.15
46 0.15
47 0.15
48 0.15
49 0.15
5 -0.6
50 0.15
51 0.15
52 0.15
53 0.15
54 0.15
55 0.15
59 0.15
6 -0.62
60 0.15
7 -0.62
9 0.41

> <PUBCHEM_EFFECTIVE_ROTOR_COUNT>
9

> <PUBCHEM_PHARMACOPHORE_FEATURES>
12
1 1 acceptor
1 2 acceptor
1 3 acceptor
1 4 acceptor
1 5 donor
3 5 6 9 cation
3 6 7 11 cation
6 12 17 19 23 24 25 rings
6 13 16 18 22 26 27 rings
6 30 32 33 34 36 37 rings
6 6 7 8 9 10 11 rings
6 8 10 14 15 20 21 rings

> <PUBCHEM_HEAVY_ATOM_COUNT>
39

> <PUBCHEM_ATOM_DEF_STEREO_COUNT>
0

> <PUBCHEM_ATOM_UDEF_STEREO_COUNT>
0

> <PUBCHEM_BOND_DEF_STEREO_COUNT>
1

> <PUBCHEM_BOND_UDEF_STEREO_COUNT>
0

> <PUBCHEM_ISOTOPIC_ATOM_COUNT>
0

> <PUBCHEM_COMPONENT_COUNT>
1

> <PUBCHEM_CACTVS_TAUTO_COUNT>
9

> <PUBCHEM_CONFORMER_ID>
07928C9200000002

> <PUBCHEM_MMFF94_ENERGY>
165.4585

> <PUBCHEM_FEATURE_SELFOVERLAP>
61.075

> <PUBCHEM_SHAPE_FINGERPRINT>
10032420 55 16101068863509334332
10462674 369 15015165921895817844
10653451 467 16535105889349867993
11513181 2 18130494289267142998
11578080 2 15339116841000249181
12156800 1 17989490757298164282
12218070 45 18194654095872732986
12788726 201 18126292080357813023
14028597 1 18120091933792963927
14395042 24 18339909460685289131
14400156 260 18272940453831890423
14725015 67 16102182664599649255
150020 26 16684566911301310083
15274700 34 18116996582009663305
15351339 4 17468742439874195578
161222 10 18413111658289064534
17627616 140 17899402375414431318
19319366 153 17534379757847219884
1979834 28 17836092173890753433
21133410 221 15958053578052004370
21796203 349 17825407197291017512
25019877 29 17559085732758559791
45266715 3 15675443514646957535
463206 1 17834380599221707291
474144 1 18187938243762037599
50677037 204 18262500530380033722
6679774 75 18121239601185569219
9982175 49 18187081789156244488

> <PUBCHEM_SHAPE_MULTIPOLES>
764.18
10.59
7.65
3.22
1.05
4.47
-0.03
-4.62
5.51
2.27
-0.9
-2.65
-0.66
-9.32

> <PUBCHEM_SHAPE_SELFOVERLAP>
1686.965

> <PUBCHEM_SHAPE_VOLUME>
410.9

> <PUBCHEM_COORDINATE_TYPE>
2
5
10

$$$$