183463
  -OEChem-03242010103D

 48 49  0     0  0  0  0  0  0999 V2000
   -2.8551    1.9524    0.3551 O   0  0  0  0  0  0  0  0  0  0  0  0
    1.1731    0.8632    1.7047 O   0  0  0  0  0  0  0  0  0  0  0  0
   -0.6102    1.7857   -0.2153 N   0  0  0  0  0  0  0  0  0  0  0  0
    0.4852    0.9912   -0.5065 N   0  0  0  0  0  0  0  0  0  0  0  0
   -0.3148    3.2061   -0.2644 C   0  0  0  0  0  0  0  0  0  0  0  0
   -0.5904    3.8286    1.1091 C   0  0  0  0  0  0  0  0  0  0  0  0
    1.1596    3.3985   -0.6347 C   0  0  0  0  0  0  0  0  0  0  0  0
   -1.2059    3.8728   -1.3187 C   0  0  0  0  0  0  0  0  0  0  0  0
   -1.8621    1.2766    0.0919 C   0  0  0  0  0  0  0  0  0  0  0  0
   -2.0271   -0.1892    0.0929 C   0  0  0  0  0  0  0  0  0  0  0  0
   -1.8024   -0.8948    1.2630 C   0  0  0  0  0  0  0  0  0  0  0  0
   -2.4031   -0.8293   -1.0761 C   0  0  0  0  0  0  0  0  0  0  0  0
    1.3191    0.5795    0.5185 C   0  0  0  0  0  0  0  0  0  0  0  0
   -1.9580   -2.2810    1.2642 C   0  0  0  0  0  0  0  0  0  0  0  0
   -2.5587   -2.2155   -1.0750 C   0  0  0  0  0  0  0  0  0  0  0  0
   -2.3362   -2.9412    0.0951 C   0  0  0  0  0  0  0  0  0  0  0  0
    2.4600   -0.2793    0.1106 C   0  0  0  0  0  0  0  0  0  0  0  0
   -1.7206   -3.0571    2.5154 C   0  0  0  0  0  0  0  0  0  0  0  0
   -2.9631   -2.9216   -2.3248 C   0  0  0  0  0  0  0  0  0  0  0  0
    3.6056   -0.2753    0.8793 C   0  0  0  0  0  0  0  0  0  0  0  0
    2.3384   -1.0538   -1.0246 C   0  0  0  0  0  0  0  0  0  0  0  0
    4.6773   -1.0818    0.4959 C   0  0  0  0  0  0  0  0  0  0  0  0
    3.4099   -1.8604   -1.4081 C   0  0  0  0  0  0  0  0  0  0  0  0
    4.5793   -1.8743   -0.6478 C   0  0  0  0  0  0  0  0  0  0  0  0
   -0.0319    3.3158    1.9001 H   0  0  0  0  0  0  0  0  0  0  0  0
   -0.2878    4.8824    1.1240 H   0  0  0  0  0  0  0  0  0  0  0  0
   -1.6482    3.8009    1.3870 H   0  0  0  0  0  0  0  0  0  0  0  0
    1.4268    2.9552   -1.6017 H   0  0  0  0  0  0  0  0  0  0  0  0
    1.8558    3.0501    0.1351 H   0  0  0  0  0  0  0  0  0  0  0  0
    1.3706    4.4716   -0.7391 H   0  0  0  0  0  0  0  0  0  0  0  0
   -2.2687    3.8464   -1.0602 H   0  0  0  0  0  0  0  0  0  0  0  0
   -0.9380    4.9284   -1.4445 H   0  0  0  0  0  0  0  0  0  0  0  0
   -1.0941    3.3845   -2.2940 H   0  0  0  0  0  0  0  0  0  0  0  0
    0.6187    0.7785   -1.4892 H   0  0  0  0  0  0  0  0  0  0  0  0
   -1.5120   -0.3757    2.1728 H   0  0  0  0  0  0  0  0  0  0  0  0
   -2.5729   -0.2591   -1.9859 H   0  0  0  0  0  0  0  0  0  0  0  0
   -2.4575   -4.0219    0.0958 H   0  0  0  0  0  0  0  0  0  0  0  0
   -2.6491   -3.1382    3.0891 H   0  0  0  0  0  0  0  0  0  0  0  0
   -1.3564   -4.0656    2.2921 H   0  0  0  0  0  0  0  0  0  0  0  0
   -0.9619   -2.5746    3.1411 H   0  0  0  0  0  0  0  0  0  0  0  0
   -3.5566   -3.8142   -2.0997 H   0  0  0  0  0  0  0  0  0  0  0  0
   -3.5810   -2.2784   -2.9605 H   0  0  0  0  0  0  0  0  0  0  0  0
   -2.0753   -3.2233   -2.8894 H   0  0  0  0  0  0  0  0  0  0  0  0
    3.6991    0.3400    1.7691 H   0  0  0  0  0  0  0  0  0  0  0  0
    1.4347   -1.0967   -1.6234 H   0  0  0  0  0  0  0  0  0  0  0  0
    5.5882   -1.0921    1.0872 H   0  0  0  0  0  0  0  0  0  0  0  0
    3.3314   -2.4836   -2.2941 H   0  0  0  0  0  0  0  0  0  0  0  0
    5.4130   -2.5034   -0.9455 H   0  0  0  0  0  0  0  0  0  0  0  0
  1  9  2  0  0  0  0
  2 13  2  0  0  0  0
  3  4  1  0  0  0  0
  3  5  1  0  0  0  0
  3  9  1  0  0  0  0
  4 13  1  0  0  0  0
  4 34  1  0  0  0  0
  5  6  1  0  0  0  0
  5  7  1  0  0  0  0
  5  8  1  0  0  0  0
  6 25  1  0  0  0  0
  6 26  1  0  0  0  0
  6 27  1  0  0  0  0
  7 28  1  0  0  0  0
  7 29  1  0  0  0  0
  7 30  1  0  0  0  0
  8 31  1  0  0  0  0
  8 32  1  0  0  0  0
  8 33  1  0  0  0  0
  9 10  1  0  0  0  0
 10 11  2  0  0  0  0
 10 12  1  0  0  0  0
 11 14  1  0  0  0  0
 11 35  1  0  0  0  0
 12 15  2  0  0  0  0
 12 36  1  0  0  0  0
 13 17  1  0  0  0  0
 14 16  2  0  0  0  0
 14 18  1  0  0  0  0
 15 16  1  0  0  0  0
 15 19  1  0  0  0  0
 16 37  1  0  0  0  0
 17 20  2  0  0  0  0
 17 21  1  0  0  0  0
 18 38  1  0  0  0  0
 18 39  1  0  0  0  0
 18 40  1  0  0  0  0
 19 41  1  0  0  0  0
 19 42  1  0  0  0  0
 19 43  1  0  0  0  0
 20 22  1  0  0  0  0
 20 44  1  0  0  0  0
 21 23  2  0  0  0  0
 21 45  1  0  0  0  0
 22 24  2  0  0  0  0
 22 46  1  0  0  0  0
 23 24  1  0  0  0  0
 23 47  1  0  0  0  0
 24 48  1  0  0  0  0
M  END
> <PUBCHEM_COMPOUND_CID>
183463

> <PUBCHEM_CONFORMER_RMSD>
0.8

> <PUBCHEM_CONFORMER_DIVERSEORDER>
1
12
10
9
8
3
11
6
7
4
5
2

> <PUBCHEM_MMFF94_PARTIAL_CHARGES>
30
1 -0.57
10 0.09
11 -0.15
12 -0.15
13 0.54
14 -0.14
15 -0.14
16 -0.15
17 0.09
18 0.14
19 0.14
2 -0.57
20 -0.15
21 -0.15
22 -0.15
23 -0.15
24 -0.15
3 -0.36
34 0.37
35 0.15
36 0.15
37 0.15
4 -0.43
44 0.15
45 0.15
46 0.15
47 0.15
48 0.15
5 0.3
9 0.54

> <PUBCHEM_EFFECTIVE_ROTOR_COUNT>
6

> <PUBCHEM_PHARMACOPHORE_FEATURES>
6
1 1 acceptor
1 2 acceptor
1 4 donor
4 5 6 7 8 hydrophobe
6 10 11 12 14 15 16 rings
6 17 20 21 22 23 24 rings

> <PUBCHEM_HEAVY_ATOM_COUNT>
24

> <PUBCHEM_ATOM_DEF_STEREO_COUNT>
0

> <PUBCHEM_ATOM_UDEF_STEREO_COUNT>
0

> <PUBCHEM_BOND_DEF_STEREO_COUNT>
0

> <PUBCHEM_BOND_UDEF_STEREO_COUNT>
0

> <PUBCHEM_ISOTOPIC_ATOM_COUNT>
0

> <PUBCHEM_COMPONENT_COUNT>
1

> <PUBCHEM_CACTVS_TAUTO_COUNT>
2

> <PUBCHEM_CONFORMER_ID>
0002CCA700000001

> <PUBCHEM_MMFF94_ENERGY>
81.1005

> <PUBCHEM_FEATURE_SELFOVERLAP>
30.446

> <PUBCHEM_SHAPE_FINGERPRINT>
107951 10 17540281764108103311
11578080 2 17129573807779719337
12156800 1 16115067364618529238
12160290 23 18265337196658083752
12363563 72 18338232781765589006
12553582 1 18267036118232682518
12788726 201 18264199236456498922
13140716 1 18410301323584990176
13681431 1 18120374512639683420
14251757 5 18189916248253712838
14659021 117 18338783560240850346
14863182 85 15664545129596179883
15463212 79 17899416381566040664
16752209 62 17972306331138292229
20028762 73 18127419952056311497
20600515 1 17679270170197826288
21452121 199 18267295607424486792
23557571 272 18410851041329845208
23598288 3 17825137859443589240
23728640 28 18264774246488534219
238 59 17329127582797401055
3298306 158 17112696986665708046
5262128 65 18192141822754722747
81228 2 18338517439175558744

> <PUBCHEM_SHAPE_MULTIPOLES>
472.21
6.51
5.28
1.82
7.17
4.86
0.19
-6.81
-1.03
-2.59
-0.53
-1.11
-1.39
0.36

> <PUBCHEM_SHAPE_SELFOVERLAP>
1002.846

> <PUBCHEM_SHAPE_VOLUME>
265.2

> <PUBCHEM_COORDINATE_TYPE>
2
5
10

$$$$