26
 OpenBabel03302012423D

 78 83  0  0  0  0  0  0  0  0999 V2000
    0.9217   -0.5853   -0.9596 C   0  0  0  0  0  0  0  0  0  0  0  0
    2.3911   -0.6411   -0.9852 N   0  3  0  0  0  0  0  0  0  0  0  0
    3.0761    0.1838   -1.9702 C   0  0  0  0  0  0  0  0  0  0  0  0
    3.0498   -1.4759   -0.1905 C   0  0  0  0  0  0  0  0  0  0  0  0
    4.4661   -1.5227   -0.1040 C   0  0  0  0  0  0  0  0  0  0  0  0
    5.1501   -2.4945    0.6633 C   0  0  0  0  0  0  0  0  0  0  0  0
    4.4763   -3.5643    1.3190 C   0  0  0  0  0  0  0  0  0  0  0  0
    5.1038   -4.7332    1.9758 C   0  0  0  0  0  0  0  0  0  0  0  0
    6.6296   -4.8230    1.9965 C   0  0  0  0  0  0  0  0  0  0  0  0
    7.4294   -5.2895    3.0479 C   0  0  0  0  0  0  0  0  0  0  0  0
    8.8172   -5.1558    2.8287 C   0  0  0  0  0  0  0  0  0  0  0  0
    9.1599   -4.6119    1.5897 C   0  0  0  0  0  0  0  0  0  0  0  0
   10.5734   -4.3164    1.1679 C   0  0  0  0  0  0  0  0  0  0  0  0
   11.3754   -4.2047    2.0856 O   0  0  0  0  0  0  0  0  0  0  0  0
   11.0375   -4.2127   -0.1339 N   0  0  0  0  0  0  0  0  0  0  0  0
   12.4551   -3.9265   -0.3964 C   0  0  0  0  0  0  0  0  0  0  0  0
   12.5933   -2.7585   -1.3840 C   0  0  0  0  0  0  0  0  0  0  0  0
   11.8092   -3.0666   -2.6649 C   0  0  0  0  0  0  0  0  0  0  0  0
   10.3363   -3.3130   -2.3165 C   0  0  0  0  0  0  0  0  0  0  0  0
   10.2373   -4.4834   -1.3294 C   0  0  0  0  0  0  0  0  0  0  0  0
    7.7092   -4.3041    0.8036 S   0  0  0  0  0  0  0  0  0  0  0  0
    4.2993   -5.8570    2.5138 C   0  0  0  0  0  0  0  0  0  0  0  0
    4.8720   -7.1043    2.9391 C   0  0  0  0  0  0  0  0  0  0  0  0
    4.0741   -8.2044    3.3690 C   0  0  0  0  0  0  0  0  0  0  0  0
    2.6729   -8.0803    3.3955 C   0  0  0  0  0  0  0  0  0  0  0  0
    2.0750   -6.8924    2.9831 C   0  0  0  0  0  0  0  0  0  0  0  0
    2.8758   -5.8200    2.5642 C   0  0  0  0  0  0  0  0  0  0  0  0
    2.0644   -4.4958    2.0047 S   0  0  0  0  0  0  0  0  0  0  0  0
    3.0114   -3.3954    1.2866 C   0  0  0  0  0  0  0  0  0  0  0  0
    2.3567   -2.4011    0.5967 C   0  0  0  0  0  0  0  0  0  0  0  0
    0.5487   -6.7890    2.9088 C   0  0  0  0  0  0  0  0  0  0  0  0
   -0.1744   -8.1250    3.0523 C   0  0  0  0  0  0  0  0  0  0  0  0
    0.4638   -8.9156    4.1737 C   0  0  0  0  0  0  0  0  0  0  0  0
    1.8446   -9.1737    3.7836 N   0  0  0  0  0  0  0  0  0  0  0  0
    2.3587  -10.5209    3.6453 C   0  0  0  0  0  0  0  0  0  0  0  0
    3.7264  -10.5959    4.3093 C   0  0  0  0  0  0  0  0  0  0  0  0
    4.7127   -9.5406    3.7365 C   0  0  0  0  0  0  0  0  0  0  0  0
    2.1416    2.3820   -0.2848 F   0  0  0  0  0  0  0  0  0  0  0  0
    2.9310    2.3518    1.2443 P   0  5  0  0  0  0  0  0  0  0  0  0
    1.8070    3.5135    1.8193 F   0  0  0  0  0  0  0  0  0  0  0  0
    1.8914    1.0874    1.7552 F   0  0  0  0  0  0  0  0  0  0  0  0
    3.7147    2.3320    2.7663 F   0  0  0  0  0  0  0  0  0  0  0  0
    4.0689    1.2061    0.6918 F   0  0  0  0  0  0  0  0  0  0  0  0
    3.9712    3.6141    0.7137 F   0  0  0  0  0  0  0  0  0  0  0  0
    0.5162    0.2191   -1.6032 H   0  0  0  0  0  0  0  0  0  0  0  0
    0.5640   -0.3513    0.0675 H   0  0  0  0  0  0  0  0  0  0  0  0
    0.4909   -1.5517   -1.2979 H   0  0  0  0  0  0  0  0  0  0  0  0
    2.3557    0.7204   -2.6215 H   0  0  0  0  0  0  0  0  0  0  0  0
    3.6705   -0.4716   -2.6392 H   0  0  0  0  0  0  0  0  0  0  0  0
    3.7456    0.9370   -1.5293 H   0  0  0  0  0  0  0  0  0  0  0  0
    5.0718   -0.7972   -0.6307 H   0  0  0  0  0  0  0  0  0  0  0  0
    6.2082   -2.3792    0.6523 H   0  0  0  0  0  0  0  0  0  0  0  0
    7.0461   -5.6792    3.9802 H   0  0  0  0  0  0  0  0  0  0  0  0
    9.5552   -5.4530    3.5630 H   0  0  0  0  0  0  0  0  0  0  0  0
   12.9210   -4.8274   -0.8500 H   0  0  0  0  0  0  0  0  0  0  0  0
   13.0305   -3.6813    0.5215 H   0  0  0  0  0  0  0  0  0  0  0  0
   13.6669   -2.6037   -1.6341 H   0  0  0  0  0  0  0  0  0  0  0  0
   12.2014   -1.8248   -0.9276 H   0  0  0  0  0  0  0  0  0  0  0  0
   12.2316   -3.9759   -3.1507 H   0  0  0  0  0  0  0  0  0  0  0  0
   11.8978   -2.2228   -3.3822 H   0  0  0  0  0  0  0  0  0  0  0  0
    9.7717   -3.5565   -3.2424 H   0  0  0  0  0  0  0  0  0  0  0  0
    9.8964   -2.3960   -1.8665 H   0  0  0  0  0  0  0  0  0  0  0  0
   10.6447   -5.3905   -1.8244 H   0  0  0  0  0  0  0  0  0  0  0  0
    9.1890   -4.7061   -1.1355 H   0  0  0  0  0  0  0  0  0  0  0  0
    5.9319   -7.2818    2.8970 H   0  0  0  0  0  0  0  0  0  0  0  0
    1.2749   -2.4316    0.6206 H   0  0  0  0  0  0  0  0  0  0  0  0
    0.2277   -6.4008    1.9165 H   0  0  0  0  0  0  0  0  0  0  0  0
    0.2231   -6.0719    3.6917 H   0  0  0  0  0  0  0  0  0  0  0  0
   -0.0543   -8.7150    2.1154 H   0  0  0  0  0  0  0  0  0  0  0  0
   -1.2584   -7.9369    3.2096 H   0  0  0  0  0  0  0  0  0  0  0  0
   -0.1011   -9.8557    4.3356 H   0  0  0  0  0  0  0  0  0  0  0  0
    0.4298   -8.3152    5.1114 H   0  0  0  0  0  0  0  0  0  0  0  0
    1.6582  -11.2643    4.0873 H   0  0  0  0  0  0  0  0  0  0  0  0
    2.4614  -10.7477    2.5629 H   0  0  0  0  0  0  0  0  0  0  0  0
    4.1562  -11.6163    4.1894 H   0  0  0  0  0  0  0  0  0  0  0  0
    3.5678  -10.4105    5.3912 H   0  0  0  0  0  0  0  0  0  0  0  0
    5.1663   -9.9294    2.8011 H   0  0  0  0  0  0  0  0  0  0  0  0
    5.5222   -9.4105    4.4864 H   0  0  0  0  0  0  0  0  0  0  0  0
  1  2  1  0  0  0  0
  1 45  1  0  0  0  0
  1 46  1  0  0  0  0
  1 47  1  0  0  0  0
  2  3  1  0  0  0  0
  2  4  2  0  0  0  0
  3 48  1  0  0  0  0
  3 49  1  0  0  0  0
  3 50  1  0  0  0  0
  4  5  1  0  0  0  0
  4 30  1  0  0  0  0
  5  6  2  0  0  0  0
  5 51  1  0  0  0  0
  6  7  1  0  0  0  0
  6 52  1  0  0  0  0
  7  8  2  0  0  0  0
  7 29  1  0  0  0  0
  8  9  1  0  0  0  0
  8 22  1  0  0  0  0
  9 10  2  0  0  0  0
  9 21  1  0  0  0  0
 10 11  1  0  0  0  0
 10 53  1  0  0  0  0
 11 12  2  0  0  0  0
 11 54  1  0  0  0  0
 12 13  1  0  0  0  0
 12 21  1  0  0  0  0
 13 14  2  0  0  0  0
 13 15  1  0  0  0  0
 15 16  1  0  0  0  0
 15 20  1  0  0  0  0
 16 17  1  0  0  0  0
 16 55  1  0  0  0  0
 16 56  1  0  0  0  0
 17 18  1  0  0  0  0
 17 57  1  0  0  0  0
 17 58  1  0  0  0  0
 18 19  1  0  0  0  0
 18 59  1  0  0  0  0
 18 60  1  0  0  0  0
 19 20  1  0  0  0  0
 19 61  1  0  0  0  0
 19 62  1  0  0  0  0
 20 63  1  0  0  0  0
 20 64  1  0  0  0  0
 22 23  1  0  0  0  0
 22 27  2  0  0  0  0
 23 24  2  0  0  0  0
 23 65  1  0  0  0  0
 24 25  1  0  0  0  0
 24 37  1  0  0  0  0
 25 26  2  0  0  0  0
 25 34  1  0  0  0  0
 26 27  1  0  0  0  0
 26 31  1  0  0  0  0
 27 28  1  0  0  0  0
 28 29  1  0  0  0  0
 29 30  2  0  0  0  0
 30 66  1  0  0  0  0
 31 32  1  0  0  0  0
 31 67  1  0  0  0  0
 31 68  1  0  0  0  0
 32 33  1  0  0  0  0
 32 69  1  0  0  0  0
 32 70  1  0  0  0  0
 33 34  1  0  0  0  0
 33 71  1  0  0  0  0
 33 72  1  0  0  0  0
 34 35  1  0  0  0  0
 35 36  1  0  0  0  0
 35 73  1  0  0  0  0
 35 74  1  0  0  0  0
 36 37  1  0  0  0  0
 36 75  1  0  0  0  0
 36 76  1  0  0  0  0
 37 77  1  0  0  0  0
 37 78  1  0  0  0  0
 38 39  1  0  0  0  0
 39 40  1  0  0  0  0
 39 41  1  0  0  0  0
 39 42  1  0  0  0  0
 39 43  1  0  0  0  0
 39 44  1  0  0  0  0
M  CHG  2   2   1  39  -1
M  END
$$$$