27
 OpenBabel03302012423D

 79 82  0  0  0  0  0  0  0  0999 V2000
    1.5023   -2.1994    1.1167 C   0  0  0  0  0  0  0  0  0  0  0  0
    2.8919   -1.5472    1.1450 C   0  0  0  0  0  0  0  0  0  0  0  0
    3.7996   -2.0007    0.0607 N   0  0  0  0  0  0  0  0  0  0  0  0
    5.0645   -2.6743    0.3442 C   0  0  0  0  0  0  0  0  0  0  0  0
    5.4477   -2.9220    1.7950 C   0  0  0  0  0  0  0  0  0  0  0  0
    3.4943   -1.6649   -1.2516 C   0  0  0  0  0  0  0  0  0  0  0  0
    2.4646   -1.0589   -1.4906 O   0  0  0  0  0  0  0  0  0  0  0  0
    4.3434   -2.0107   -2.4440 C   0  0  0  0  0  0  0  0  0  0  0  0
    4.2216   -1.4613   -3.7203 C   0  0  0  0  0  0  0  0  0  0  0  0
    5.0304   -2.0853   -4.6966 C   0  0  0  0  0  0  0  0  0  0  0  0
    5.8023   -3.1602   -4.2147 C   0  0  0  0  0  0  0  0  0  0  0  0
    6.6818   -4.1534   -4.9623 C   0  0  0  0  0  0  0  0  0  0  0  0
    6.6000   -5.5651   -4.5722 C   0  0  0  0  0  0  0  0  0  0  0  0
    5.7025   -6.0623   -3.6028 C   0  0  0  0  0  0  0  0  0  0  0  0
    5.6514   -7.3981   -3.2143 C   0  0  0  0  0  0  0  0  0  0  0  0
    6.4642   -8.4099   -3.7838 C   0  0  0  0  0  0  0  0  0  0  0  0
    6.3915   -9.6731   -3.3991 N   0  3  0  0  0  0  0  0  0  0  0  0
    7.1719  -10.7660   -3.9901 C   0  0  0  0  0  0  0  0  0  0  0  0
    5.5277  -10.1662   -2.3175 C   0  0  0  0  0  0  0  0  0  0  0  0
    7.3377   -7.9688   -4.8147 C   0  0  0  0  0  0  0  0  0  0  0  0
    7.4109   -6.6309   -5.2050 C   0  0  0  0  0  0  0  0  0  0  0  0
    8.4233   -6.2082   -6.4682 S   0  0  0  0  0  0  0  0  0  0  0  0
    8.3883   -4.5656   -6.8004 C   0  0  0  0  0  0  0  0  0  0  0  0
    9.1916   -4.0926   -7.8428 C   0  0  0  0  0  0  0  0  0  0  0  0
    9.2231   -2.7276   -8.1883 C   0  0  0  0  0  0  0  0  0  0  0  0
    8.4323   -1.8364   -7.4360 C   0  0  0  0  0  0  0  0  0  0  0  0
    7.6438   -2.3422   -6.3827 C   0  0  0  0  0  0  0  0  0  0  0  0
    7.5518   -3.7012   -6.0432 C   0  0  0  0  0  0  0  0  0  0  0  0
    8.3461   -0.3430   -7.7454 C   0  0  0  0  0  0  0  0  0  0  0  0
    6.8961   -0.0195   -8.1822 C   0  0  0  0  0  0  0  0  0  0  0  0
    8.6670    0.4798   -6.4640 C   0  0  0  0  0  0  0  0  0  0  0  0
    9.3654    0.1171   -8.8318 C   0  0  0  0  0  0  0  0  0  0  0  0
    9.9675   -0.9112   -9.7959 C   0  0  0  0  0  0  0  0  0  0  0  0
   10.0064   -2.2755   -9.3049 N   0  0  0  0  0  0  0  0  0  0  0  0
   10.7956   -3.2251  -10.0909 C   0  0  0  0  0  0  0  0  0  0  0  0
    5.5230   -3.1858   -2.5627 S   0  0  0  0  0  0  0  0  0  0  0  0
    2.3240    3.0182    0.1080 F   0  0  0  0  0  0  0  0  0  0  0  0
    3.3333    2.4033   -1.1376 P   0  5  0  0  0  0  0  0  0  0  0  0
    2.0672    1.3564   -1.6132 F   0  0  0  0  0  0  0  0  0  0  0  0
    2.7217    3.5788   -2.2264 F   0  0  0  0  0  0  0  0  0  0  0  0
    4.5856    3.4758   -0.6632 F   0  0  0  0  0  0  0  0  0  0  0  0
    3.9556    1.2290   -0.0549 F   0  0  0  0  0  0  0  0  0  0  0  0
    4.3402    1.7702   -2.3782 F   0  0  0  0  0  0  0  0  0  0  0  0
    0.8857   -1.7516    1.9290 H   0  0  0  0  0  0  0  0  0  0  0  0
    1.5762   -3.2897    1.3001 H   0  0  0  0  0  0  0  0  0  0  0  0
    0.9633   -2.0193    0.1660 H   0  0  0  0  0  0  0  0  0  0  0  0
    3.2996   -1.7441    2.1497 H   0  0  0  0  0  0  0  0  0  0  0  0
    2.7532   -0.4513    1.0812 H   0  0  0  0  0  0  0  0  0  0  0  0
    5.8829   -2.0560   -0.0877 H   0  0  0  0  0  0  0  0  0  0  0  0
    5.0317   -3.6809   -0.1142 H   0  0  0  0  0  0  0  0  0  0  0  0
    5.5304   -1.9705    2.3563 H   0  0  0  0  0  0  0  0  0  0  0  0
    6.4531   -3.4017    1.7920 H   0  0  0  0  0  0  0  0  0  0  0  0
    4.7328   -3.6213    2.2722 H   0  0  0  0  0  0  0  0  0  0  0  0
    3.5433   -0.6504   -3.9567 H   0  0  0  0  0  0  0  0  0  0  0  0
    4.9786   -1.7772   -5.7313 H   0  0  0  0  0  0  0  0  0  0  0  0
    4.9729   -5.4639   -3.1128 H   0  0  0  0  0  0  0  0  0  0  0  0
    4.9013   -7.5781   -2.4614 H   0  0  0  0  0  0  0  0  0  0  0  0
    7.8406  -10.5182   -4.8210 H   0  0  0  0  0  0  0  0  0  0  0  0
    6.4774  -11.5340   -4.3964 H   0  0  0  0  0  0  0  0  0  0  0  0
    7.8057  -11.2384   -3.2131 H   0  0  0  0  0  0  0  0  0  0  0  0
    4.9319   -9.4249   -1.7651 H   0  0  0  0  0  0  0  0  0  0  0  0
    6.1514  -10.6586   -1.5465 H   0  0  0  0  0  0  0  0  0  0  0  0
    4.8061  -10.9063   -2.7234 H   0  0  0  0  0  0  0  0  0  0  0  0
    7.9870   -8.6197   -5.3596 H   0  0  0  0  0  0  0  0  0  0  0  0
    9.7733   -4.8232   -8.3916 H   0  0  0  0  0  0  0  0  0  0  0  0
    7.0963   -1.6272   -5.8284 H   0  0  0  0  0  0  0  0  0  0  0  0
    6.1688   -0.2540   -7.3730 H   0  0  0  0  0  0  0  0  0  0  0  0
    6.6046   -0.6018   -9.0802 H   0  0  0  0  0  0  0  0  0  0  0  0
    6.7822    1.0639   -8.3963 H   0  0  0  0  0  0  0  0  0  0  0  0
    7.9552    0.3093   -5.6335 H   0  0  0  0  0  0  0  0  0  0  0  0
    8.6471    1.5676   -6.6828 H   0  0  0  0  0  0  0  0  0  0  0  0
    9.6813    0.2127   -6.0896 H   0  0  0  0  0  0  0  0  0  0  0  0
    8.9929    0.9985   -9.4029 H   0  0  0  0  0  0  0  0  0  0  0  0
   10.2524    0.5147   -8.2967 H   0  0  0  0  0  0  0  0  0  0  0  0
   11.0167   -0.5692   -9.9821 H   0  0  0  0  0  0  0  0  0  0  0  0
    9.4538   -0.9066  -10.7768 H   0  0  0  0  0  0  0  0  0  0  0  0
   11.3416   -2.7264  -10.9226 H   0  0  0  0  0  0  0  0  0  0  0  0
   10.1415   -4.0013  -10.5460 H   0  0  0  0  0  0  0  0  0  0  0  0
   11.5622   -3.7129   -9.4461 H   0  0  0  0  0  0  0  0  0  0  0  0
  1  2  1  0  0  0  0
  1 44  1  0  0  0  0
  1 45  1  0  0  0  0
  1 46  1  0  0  0  0
  2  3  1  0  0  0  0
  2 47  1  0  0  0  0
  2 48  1  0  0  0  0
  3  4  1  0  0  0  0
  3  6  1  0  0  0  0
  4  5  1  0  0  0  0
  4 49  1  0  0  0  0
  4 50  1  0  0  0  0
  5 51  1  0  0  0  0
  5 52  1  0  0  0  0
  5 53  1  0  0  0  0
  6  7  2  0  0  0  0
  6  8  1  0  0  0  0
  8  9  2  0  0  0  0
  8 36  1  0  0  0  0
  9 10  1  0  0  0  0
  9 54  1  0  0  0  0
 10 11  2  0  0  0  0
 10 55  1  0  0  0  0
 11 12  1  0  0  0  0
 11 36  1  0  0  0  0
 12 13  2  0  0  0  0
 12 28  1  0  0  0  0
 13 14  1  0  0  0  0
 13 21  1  0  0  0  0
 14 15  2  0  0  0  0
 14 56  1  0  0  0  0
 15 16  1  0  0  0  0
 15 57  1  0  0  0  0
 16 17  2  0  0  0  0
 16 20  1  0  0  0  0
 17 18  1  0  0  0  0
 17 19  1  0  0  0  0
 18 58  1  0  0  0  0
 18 59  1  0  0  0  0
 18 60  1  0  0  0  0
 19 61  1  0  0  0  0
 19 62  1  0  0  0  0
 19 63  1  0  0  0  0
 20 21  2  0  0  0  0
 20 64  1  0  0  0  0
 21 22  1  0  0  0  0
 22 23  1  0  0  0  0
 23 24  1  0  0  0  0
 23 28  2  0  0  0  0
 24 25  2  0  0  0  0
 24 65  1  0  0  0  0
 25 26  1  0  0  0  0
 25 34  1  0  0  0  0
 26 27  2  0  0  0  0
 26 29  1  0  0  0  0
 27 28  1  0  0  0  0
 27 66  1  0  0  0  0
 29 30  1  0  0  0  0
 29 31  1  0  0  0  0
 29 32  1  0  0  0  0
 30 67  1  0  0  0  0
 30 68  1  0  0  0  0
 30 69  1  0  0  0  0
 31 70  1  0  0  0  0
 31 71  1  0  0  0  0
 31 72  1  0  0  0  0
 32 33  1  0  0  0  0
 32 73  1  0  0  0  0
 32 74  1  0  0  0  0
 33 34  1  0  0  0  0
 33 75  1  0  0  0  0
 33 76  1  0  0  0  0
 34 35  1  0  0  0  0
 35 77  1  0  0  0  0
 35 78  1  0  0  0  0
 35 79  1  0  0  0  0
 37 38  1  0  0  0  0
 38 39  1  0  0  0  0
 38 40  1  0  0  0  0
 38 41  1  0  0  0  0
 38 42  1  0  0  0  0
 38 43  1  0  0  0  0
M  CHG  2  17   1  38  -1
M  END
$$$$