2162
  -OEChem-03242010103D

 53 54  0     1  0  0  0  0  0999 V2000
   -2.9012   -2.3251    1.3735 Cl  0  0  0  0  0  0  0  0  0  0  0  0
    3.2092    1.1360   -0.2764 O   0  0  0  0  0  0  0  0  0  0  0  0
    1.9542   -1.3638    0.8823 O   0  0  0  0  0  0  0  0  0  0  0  0
   -3.8016    1.1916    1.1105 O   0  0  0  0  0  0  0  0  0  0  0  0
    0.4980   -1.3126    2.6812 O   0  0  0  0  0  0  0  0  0  0  0  0
   -3.8266    1.6957   -1.1488 O   0  0  0  0  0  0  0  0  0  0  0  0
    0.3522    2.4185   -0.0052 N   0  0  0  0  0  0  0  0  0  0  0  0
    6.7751    0.9953   -1.1802 N   0  0  0  0  0  0  0  0  0  0  0  0
   -1.1864    0.1049    0.5493 C   0  0  1  0  0  0  0  0  0  0  0  0
    0.3030    0.2284    0.8910 C   0  0  0  0  0  0  0  0  0  0  0  0
   -1.7901    1.4139    0.0306 C   0  0  0  0  0  0  0  0  0  0  0  0
    0.9993    1.3492    0.5938 C   0  0  0  0  0  0  0  0  0  0  0  0
   -1.0107    2.4836   -0.2460 C   0  0  0  0  0  0  0  0  0  0  0  0
   -1.3910   -0.9886   -0.4597 C   0  0  0  0  0  0  0  0  0  0  0  0
    2.4674    1.5578    0.8507 C   0  0  0  0  0  0  0  0  0  0  0  0
    0.9096   -0.9028    1.6115 C   0  0  0  0  0  0  0  0  0  0  0  0
   -1.4940    3.7940   -0.8061 C   0  0  0  0  0  0  0  0  0  0  0  0
   -3.2555    1.4569   -0.1008 C   0  0  0  0  0  0  0  0  0  0  0  0
   -2.1521   -2.1207   -0.1679 C   0  0  0  0  0  0  0  0  0  0  0  0
   -0.7979   -0.8515   -1.7146 C   0  0  0  0  0  0  0  0  0  0  0  0
   -2.3199   -3.1154   -1.1314 C   0  0  0  0  0  0  0  0  0  0  0  0
   -0.9657   -1.8463   -2.6780 C   0  0  0  0  0  0  0  0  0  0  0  0
   -1.7266   -2.9782   -2.3863 C   0  0  0  0  0  0  0  0  0  0  0  0
    4.6091    1.3126   -0.0850 C   0  0  0  0  0  0  0  0  0  0  0  0
    2.6521   -2.4738    1.4563 C   0  0  0  0  0  0  0  0  0  0  0  0
    5.3379    0.8180   -1.3242 C   0  0  0  0  0  0  0  0  0  0  0  0
   -5.2324    1.1965    1.1453 C   0  0  0  0  0  0  0  0  0  0  0  0
    3.7844   -2.8743    0.5348 C   0  0  0  0  0  0  0  0  0  0  0  0
   -1.6775   -0.0979    1.5063 H   0  0  0  0  0  0  0  0  0  0  0  0
    0.9063    3.2363   -0.2333 H   0  0  0  0  0  0  0  0  0  0  0  0
    2.6678    2.6178    1.0541 H   0  0  0  0  0  0  0  0  0  0  0  0
    2.7910    1.0048    1.7408 H   0  0  0  0  0  0  0  0  0  0  0  0
   -1.1214    3.9260   -1.8274 H   0  0  0  0  0  0  0  0  0  0  0  0
   -2.5827    3.8830   -0.8300 H   0  0  0  0  0  0  0  0  0  0  0  0
   -1.1230    4.6253   -0.1960 H   0  0  0  0  0  0  0  0  0  0  0  0
   -0.1987    0.0172   -1.9729 H   0  0  0  0  0  0  0  0  0  0  0  0
   -2.9100   -4.0035   -0.9200 H   0  0  0  0  0  0  0  0  0  0  0  0
   -0.5035   -1.7399   -3.6551 H   0  0  0  0  0  0  0  0  0  0  0  0
   -1.8570   -3.7527   -3.1364 H   0  0  0  0  0  0  0  0  0  0  0  0
    4.9308    0.7445    0.7965 H   0  0  0  0  0  0  0  0  0  0  0  0
    4.8214    2.3754    0.0828 H   0  0  0  0  0  0  0  0  0  0  0  0
    1.9604   -3.3147    1.5799 H   0  0  0  0  0  0  0  0  0  0  0  0
    3.0544   -2.1864    2.4342 H   0  0  0  0  0  0  0  0  0  0  0  0
    4.9843    1.3640   -2.2060 H   0  0  0  0  0  0  0  0  0  0  0  0
    5.1041   -0.2383   -1.4997 H   0  0  0  0  0  0  0  0  0  0  0  0
   -5.6151    2.1829    0.8662 H   0  0  0  0  0  0  0  0  0  0  0  0
   -5.6295    0.4245    0.4793 H   0  0  0  0  0  0  0  0  0  0  0  0
   -5.5480    0.9736    2.1680 H   0  0  0  0  0  0  0  0  0  0  0  0
    3.4005   -3.1362   -0.4566 H   0  0  0  0  0  0  0  0  0  0  0  0
    4.4803   -2.0405    0.3961 H   0  0  0  0  0  0  0  0  0  0  0  0
    4.3342   -3.7288    0.9390 H   0  0  0  0  0  0  0  0  0  0  0  0
    7.1094    0.4597   -0.3801 H   0  0  0  0  0  0  0  0  0  0  0  0
    7.2473    0.6118   -1.9978 H   0  0  0  0  0  0  0  0  0  0  0  0
  1 19  1  0  0  0  0
  2 15  1  0  0  0  0
  2 24  1  0  0  0  0
  3 16  1  0  0  0  0
  3 25  1  0  0  0  0
  4 18  1  0  0  0  0
  4 27  1  0  0  0  0
  5 16  2  0  0  0  0
  6 18  2  0  0  0  0
  7 12  1  0  0  0  0
  7 13  1  0  0  0  0
  7 30  1  0  0  0  0
  8 26  1  0  0  0  0
  8 52  1  0  0  0  0
  8 53  1  0  0  0  0
  9 10  1  0  0  0  0
  9 11  1  0  0  0  0
  9 14  1  0  0  0  0
  9 29  1  0  0  0  0
 10 12  2  0  0  0  0
 10 16  1  0  0  0  0
 11 13  2  0  0  0  0
 11 18  1  0  0  0  0
 12 15  1  0  0  0  0
 13 17  1  0  0  0  0
 14 19  1  0  0  0  0
 14 20  2  0  0  0  0
 15 31  1  0  0  0  0
 15 32  1  0  0  0  0
 17 33  1  0  0  0  0
 17 34  1  0  0  0  0
 17 35  1  0  0  0  0
 19 21  2  0  0  0  0
 20 22  1  0  0  0  0
 20 36  1  0  0  0  0
 21 23  1  0  0  0  0
 21 37  1  0  0  0  0
 22 23  2  0  0  0  0
 22 38  1  0  0  0  0
 23 39  1  0  0  0  0
 24 26  1  0  0  0  0
 24 40  1  0  0  0  0
 24 41  1  0  0  0  0
 25 28  1  0  0  0  0
 25 42  1  0  0  0  0
 25 43  1  0  0  0  0
 26 44  1  0  0  0  0
 26 45  1  0  0  0  0
 27 46  1  0  0  0  0
 27 47  1  0  0  0  0
 27 48  1  0  0  0  0
 28 49  1  0  0  0  0
 28 50  1  0  0  0  0
 28 51  1  0  0  0  0
M  END
> <PUBCHEM_COMPOUND_CID>
2162

> <PUBCHEM_CONFORMER_RMSD>
1

> <PUBCHEM_CONFORMER_DIVERSEORDER>
4
41
22
36
18
33
29
10
39
30
17
25
32
38
27
34
35
37
19
5
1
20
16
9
26
3
11
12
31
8
24
15
7
28
14
13
2
6
40
21
23

> <PUBCHEM_MMFF94_PARTIAL_CHARGES>
34
1 -0.18
10 -0.12
11 -0.12
12 -0.04
13 -0.04
14 -0.14
15 0.42
16 0.71
17 0.14
18 0.71
19 0.18
2 -0.56
20 -0.15
21 -0.15
22 -0.15
23 -0.15
24 0.28
25 0.28
26 0.27
27 0.28
3 -0.43
30 0.4
36 0.15
37 0.15
38 0.15
39 0.15
4 -0.43
5 -0.57
52 0.36
53 0.36
6 -0.57
7 -0.6
8 -0.99
9 0.42

> <PUBCHEM_EFFECTIVE_ROTOR_COUNT>
10.4

> <PUBCHEM_PHARMACOPHORE_FEATURES>
9
1 2 acceptor
1 5 acceptor
1 6 acceptor
1 7 cation
1 7 donor
1 8 cation
1 8 donor
6 14 19 20 21 22 23 rings
6 7 9 10 11 12 13 rings

> <PUBCHEM_HEAVY_ATOM_COUNT>
28

> <PUBCHEM_ATOM_DEF_STEREO_COUNT>
0

> <PUBCHEM_ATOM_UDEF_STEREO_COUNT>
1

> <PUBCHEM_BOND_DEF_STEREO_COUNT>
0

> <PUBCHEM_BOND_UDEF_STEREO_COUNT>
0

> <PUBCHEM_ISOTOPIC_ATOM_COUNT>
0

> <PUBCHEM_COMPONENT_COUNT>
1

> <PUBCHEM_CACTVS_TAUTO_COUNT>
3

> <PUBCHEM_CONFORMER_ID>
0000087200000004

> <PUBCHEM_MMFF94_ENERGY>
63.5092

> <PUBCHEM_FEATURE_SELFOVERLAP>
45.671

> <PUBCHEM_SHAPE_FINGERPRINT>
10190108 129 18118980306585296491
10369192 42 17095818702038559276
10906281 52 18120935002426917317
11578080 2 16516514509074633039
12553582 1 18121766489986710274
13140716 1 18339068324692485579
133893 2 17243542426899288146
14251751 93 18130226081201010782
14790565 3 18196659488305626905
15131766 46 16154002351754268924
15274700 242 18263914605544138264
16945 1 18048578345145668011
17492 54 18265310899169572853
17980427 26 16951951861360813745
1813 80 17909826870763188180
19319366 153 18187645756816682666
229495 10 17242706750754201765
23419403 2 16244713121891874721
2818148 4 18338784676261829954
34934 24 18408885139633952281
469060 322 15285645446852064891
70251023 43 17766831011452850823
81228 2 17695576988869251795

> <PUBCHEM_SHAPE_MULTIPOLES>
538.79
8.87
4.18
2.08
12
0.52
0.39
-3.03
1.26
-1.81
1.04
-0.3
1.64
-1.74

> <PUBCHEM_SHAPE_SELFOVERLAP>
1115.308

> <PUBCHEM_SHAPE_VOLUME>
309.6

> <PUBCHEM_COORDINATE_TYPE>
2
5
10

$$$$