2
 OpenBabel03302012423D

 70 73  0  0  0  0  0  0  0  0999 V2000
    0.8891   -0.2310    1.5664 C   0  0  0  0  0  0  0  0  0  0  0  0
    1.4257    0.2905    0.3133 N   0  0  0  0  0  0  0  0  0  0  0  0
    1.1338   -0.5059   -0.8676 C   0  0  0  0  0  0  0  0  0  0  0  0
    2.2643    1.4915    0.3360 C   0  0  0  0  0  0  0  0  0  0  0  0
    2.2197    2.3575    1.4336 C   0  0  0  0  0  0  0  0  0  0  0  0
    3.0457    3.4803    1.5244 C   0  0  0  0  0  0  0  0  0  0  0  0
    4.0318    3.7989    0.5493 C   0  0  0  0  0  0  0  0  0  0  0  0
    4.8951    4.9721    0.6895 C   0  0  0  0  0  0  0  0  0  0  0  0
    4.5817    5.9600    1.7820 C   0  0  0  0  0  0  0  0  0  0  0  0
    3.3159    6.4386    2.1348 C   0  0  0  0  0  0  0  0  0  0  0  0
    3.3339    7.4389    3.1160 C   0  0  0  0  0  0  0  0  0  0  0  0
    4.6066    7.7587    3.5809 C   0  0  0  0  0  0  0  0  0  0  0  0
    4.8877    8.8531    4.5567 C   0  0  0  0  0  0  0  0  0  0  0  0
    3.9984    9.6880    4.6704 O   0  0  0  0  0  0  0  0  0  0  0  0
    6.0266    8.9821    5.3286 N   0  0  0  0  0  0  0  0  0  0  0  0
    6.1808   10.1281    6.2304 C   0  0  0  0  0  0  0  0  0  0  0  0
    7.5167   10.8326    5.9619 C   0  0  0  0  0  0  0  0  0  0  0  0
    8.6701    9.8287    6.0797 C   0  0  0  0  0  0  0  0  0  0  0  0
    8.4539    8.6735    5.0963 C   0  0  0  0  0  0  0  0  0  0  0  0
    7.1128    8.0018    5.4046 C   0  0  0  0  0  0  0  0  0  0  0  0
    5.6805    6.7721    2.7571 S   0  0  0  0  0  0  0  0  0  0  0  0
    6.0276    5.2565   -0.1964 C   0  0  0  0  0  0  0  0  0  0  0  0
    6.8168    6.4335   -0.1166 C   0  0  0  0  0  0  0  0  0  0  0  0
    7.9351    6.6749   -0.9231 C   0  0  0  0  0  0  0  0  0  0  0  0
    8.3797    5.7698   -1.9254 C   0  0  0  0  0  0  0  0  0  0  0  0
    9.4621    6.0310   -2.6716 N   0  3  0  0  0  0  0  0  0  0  0  0
    9.9809    5.1170   -3.6929 C   0  0  0  0  0  0  0  0  0  0  0  0
   10.2707    7.2481   -2.5783 C   0  0  0  0  0  0  0  0  0  0  0  0
    7.5727    4.6012   -2.0862 C   0  0  0  0  0  0  0  0  0  0  0  0
    6.4202    4.3583   -1.2967 C   0  0  0  0  0  0  0  0  0  0  0  0
    5.4035    3.0517   -1.6262 S   0  0  0  0  0  0  0  0  0  0  0  0
    4.1254    2.8808   -0.5256 C   0  0  0  0  0  0  0  0  0  0  0  0
    3.2241    1.7969   -0.6615 C   0  0  0  0  0  0  0  0  0  0  0  0
    4.4892   -3.0135   -2.2930 F   0  0  0  0  0  0  0  0  0  0  0  0
    4.9219   -1.5254   -1.5627 P   0  5  0  0  0  0  0  0  0  0  0  0
    6.3454   -2.2266   -0.9191 F   0  0  0  0  0  0  0  0  0  0  0  0
    3.5131   -0.8610   -2.2464 F   0  0  0  0  0  0  0  0  0  0  0  0
    4.0612   -1.9672   -0.1402 F   0  0  0  0  0  0  0  0  0  0  0  0
    5.7692   -1.0545   -2.9774 F   0  0  0  0  0  0  0  0  0  0  0  0
    5.3518   -0.0382   -0.8197 F   0  0  0  0  0  0  0  0  0  0  0  0
    0.3453   -1.1931    1.4149 H   0  0  0  0  0  0  0  0  0  0  0  0
    0.1669    0.4782    2.0070 H   0  0  0  0  0  0  0  0  0  0  0  0
    1.7236   -0.4330    2.2723 H   0  0  0  0  0  0  0  0  0  0  0  0
    0.0477   -0.7428   -0.9047 H   0  0  0  0  0  0  0  0  0  0  0  0
    1.6485   -1.4897   -0.8028 H   0  0  0  0  0  0  0  0  0  0  0  0
    1.3659    0.0240   -1.8152 H   0  0  0  0  0  0  0  0  0  0  0  0
    1.5303    2.1893    2.2448 H   0  0  0  0  0  0  0  0  0  0  0  0
    2.9165    4.0515    2.4248 H   0  0  0  0  0  0  0  0  0  0  0  0
    2.3941    6.1125    1.6720 H   0  0  0  0  0  0  0  0  0  0  0  0
    2.4317    7.9216    3.4690 H   0  0  0  0  0  0  0  0  0  0  0  0
    6.1713    9.7563    7.2782 H   0  0  0  0  0  0  0  0  0  0  0  0
    5.3633   10.8725    6.1358 H   0  0  0  0  0  0  0  0  0  0  0  0
    7.6583   11.6548    6.6958 H   0  0  0  0  0  0  0  0  0  0  0  0
    7.5106   11.2680    4.9387 H   0  0  0  0  0  0  0  0  0  0  0  0
    8.7036    9.4244    7.1167 H   0  0  0  0  0  0  0  0  0  0  0  0
    9.6385   10.3306    5.8715 H   0  0  0  0  0  0  0  0  0  0  0  0
    9.2770    7.9344    5.2044 H   0  0  0  0  0  0  0  0  0  0  0  0
    8.4575    9.0552    4.0510 H   0  0  0  0  0  0  0  0  0  0  0  0
    7.1501    7.5945    6.4360 H   0  0  0  0  0  0  0  0  0  0  0  0
    6.9987    7.1249    4.7728 H   0  0  0  0  0  0  0  0  0  0  0  0
    6.6226    7.2327    0.5600 H   0  0  0  0  0  0  0  0  0  0  0  0
    8.4138    7.6100   -0.7078 H   0  0  0  0  0  0  0  0  0  0  0  0
    9.4805    4.1495   -3.8077 H   0  0  0  0  0  0  0  0  0  0  0  0
   11.0412    4.8715   -3.4589 H   0  0  0  0  0  0  0  0  0  0  0  0
    9.9551    5.6186   -4.6839 H   0  0  0  0  0  0  0  0  0  0  0  0
    9.9796    8.0105   -1.8521 H   0  0  0  0  0  0  0  0  0  0  0  0
   10.2649    7.7658   -3.5653 H   0  0  0  0  0  0  0  0  0  0  0  0
   11.3244    6.9865   -2.3403 H   0  0  0  0  0  0  0  0  0  0  0  0
    7.7616    3.8560   -2.8320 H   0  0  0  0  0  0  0  0  0  0  0  0
    3.3373    1.1840   -1.5207 H   0  0  0  0  0  0  0  0  0  0  0  0
  1  2  1  0  0  0  0
  1 41  1  0  0  0  0
  1 42  1  0  0  0  0
  1 43  1  0  0  0  0
  2  3  1  0  0  0  0
  2  4  1  0  0  0  0
  3 44  1  0  0  0  0
  3 45  1  0  0  0  0
  3 46  1  0  0  0  0
  4  5  1  0  0  0  0
  4 33  2  0  0  0  0
  5  6  2  0  0  0  0
  5 47  1  0  0  0  0
  6  7  1  0  0  0  0
  6 48  1  0  0  0  0
  7  8  1  0  0  0  0
  7 32  2  0  0  0  0
  8  9  1  0  0  0  0
  8 22  2  0  0  0  0
  9 10  2  0  0  0  0
  9 21  1  0  0  0  0
 10 11  1  0  0  0  0
 10 49  1  0  0  0  0
 11 12  2  0  0  0  0
 11 50  1  0  0  0  0
 12 13  1  0  0  0  0
 12 21  1  0  0  0  0
 13 14  2  0  0  0  0
 13 15  1  0  0  0  0
 15 16  1  0  0  0  0
 15 20  1  0  0  0  0
 16 17  1  0  0  0  0
 16 51  1  0  0  0  0
 16 52  1  0  0  0  0
 17 18  1  0  0  0  0
 17 53  1  0  0  0  0
 17 54  1  0  0  0  0
 18 19  1  0  0  0  0
 18 55  1  0  0  0  0
 18 56  1  0  0  0  0
 19 20  1  0  0  0  0
 19 57  1  0  0  0  0
 19 58  1  0  0  0  0
 20 59  1  0  0  0  0
 20 60  1  0  0  0  0
 22 23  1  0  0  0  0
 22 30  1  0  0  0  0
 23 24  2  0  0  0  0
 23 61  1  0  0  0  0
 24 25  1  0  0  0  0
 24 62  1  0  0  0  0
 25 26  2  0  0  0  0
 25 29  1  0  0  0  0
 26 27  1  0  0  0  0
 26 28  1  0  0  0  0
 27 63  1  0  0  0  0
 27 64  1  0  0  0  0
 27 65  1  0  0  0  0
 28 66  1  0  0  0  0
 28 67  1  0  0  0  0
 28 68  1  0  0  0  0
 29 30  2  0  0  0  0
 29 69  1  0  0  0  0
 30 31  1  0  0  0  0
 31 32  1  0  0  0  0
 32 33  1  0  0  0  0
 33 70  1  0  0  0  0
 34 35  1  0  0  0  0
 35 36  1  0  0  0  0
 35 37  1  0  0  0  0
 35 38  1  0  0  0  0
 35 39  1  0  0  0  0
 35 40  1  0  0  0  0
M  CHG  2  26   1  35  -1
M  END
$$$$