127044753
  -OEChem-03242010103D

 66 70  0     0  0  0  0  0  0999 V2000
    1.8971   -4.5092   -0.4780 O   0  0  0  0  0  0  0  0  0  0  0  0
    3.0679   -3.5690    1.8606 O   0  0  0  0  0  0  0  0  0  0  0  0
    0.2638    5.0152   -1.1871 O   0  0  0  0  0  0  0  0  0  0  0  0
    6.7079   -0.3944   -0.5222 O   0  0  0  0  0  0  0  0  0  0  0  0
   -3.8218    1.3385    0.5824 N   0  0  0  0  0  0  0  0  0  0  0  0
   -2.2438   -0.4063    0.6274 N   0  0  0  0  0  0  0  0  0  0  0  0
   -2.7149   -2.5174   -0.4348 N   0  0  0  0  0  0  0  0  0  0  0  0
   -4.3503   -0.7647   -0.5025 C   0  0  0  0  0  0  0  0  0  0  0  0
   -3.4578    0.0160    0.2269 C   0  0  0  0  0  0  0  0  0  0  0  0
   -3.9209   -2.0638   -0.8191 C   0  0  0  0  0  0  0  0  0  0  0  0
   -1.9420   -1.6642    0.2674 C   0  0  0  0  0  0  0  0  0  0  0  0
   -0.6525   -2.1572    0.6756 C   0  0  0  0  0  0  0  0  0  0  0  0
   -3.0685    2.5046    0.7912 C   0  0  0  0  0  0  0  0  0  0  0  0
   -5.6134   -0.3010   -0.9095 C   0  0  0  0  0  0  0  0  0  0  0  0
   -4.7870   -2.8750   -1.5482 C   0  0  0  0  0  0  0  0  0  0  0  0
   -1.8732    2.6960    0.0981 C   0  0  0  0  0  0  0  0  0  0  0  0
    0.0094   -3.1069   -0.1028 C   0  0  0  0  0  0  0  0  0  0  0  0
   -1.1240    3.8541    0.3064 C   0  0  0  0  0  0  0  0  0  0  0  0
   -0.0643   -1.6845    1.8486 C   0  0  0  0  0  0  0  0  0  0  0  0
   -6.4585   -1.1330   -1.6371 C   0  0  0  0  0  0  0  0  0  0  0  0
   -6.0446   -2.4213   -1.9567 C   0  0  0  0  0  0  0  0  0  0  0  0
   -3.5147    3.4713    1.6923 C   0  0  0  0  0  0  0  0  0  0  0  0
    1.2594   -3.5838    0.2918 C   0  0  0  0  0  0  0  0  0  0  0  0
    1.8475   -3.1112    1.4651 C   0  0  0  0  0  0  0  0  0  0  0  0
    1.1856   -2.1616    2.2435 C   0  0  0  0  0  0  0  0  0  0  0  0
   -1.5702    4.8206    1.2078 C   0  0  0  0  0  0  0  0  0  0  0  0
   -2.7656    4.6293    1.9007 C   0  0  0  0  0  0  0  0  0  0  0  0
    0.1222    4.0538   -0.4165 C   0  0  0  0  0  0  0  0  0  0  0  0
    1.2275    3.0516   -0.2357 C   0  0  0  0  0  0  0  0  0  0  0  0
    3.5158    2.2440   -0.8044 C   0  0  0  0  0  0  0  0  0  0  0  0
    2.3830    3.1812   -0.9041 C   0  0  0  0  0  0  0  0  0  0  0  0
    3.6210    1.3915    0.2948 C   0  0  0  0  0  0  0  0  0  0  0  0
    4.4832    2.2097   -1.8086 C   0  0  0  0  0  0  0  0  0  0  0  0
    1.2272   -4.9399   -1.6614 C   0  0  0  0  0  0  0  0  0  0  0  0
    5.6610    0.4705   -0.6149 C   0  0  0  0  0  0  0  0  0  0  0  0
    4.6935    0.5048    0.3893 C   0  0  0  0  0  0  0  0  0  0  0  0
    5.5559    1.3231   -1.7139 C   0  0  0  0  0  0  0  0  0  0  0  0
    3.5989   -3.0349    3.0720 C   0  0  0  0  0  0  0  0  0  0  0  0
    7.6605   -0.3765   -1.5844 C   0  0  0  0  0  0  0  0  0  0  0  0
   -4.7696    1.4030    0.9437 H   0  0  0  0  0  0  0  0  0  0  0  0
   -5.9637    0.7022   -0.6835 H   0  0  0  0  0  0  0  0  0  0  0  0
   -4.4866   -3.8875   -1.8113 H   0  0  0  0  0  0  0  0  0  0  0  0
   -1.5276    1.9570   -0.6213 H   0  0  0  0  0  0  0  0  0  0  0  0
   -0.4741   -3.4381   -1.0155 H   0  0  0  0  0  0  0  0  0  0  0  0
   -0.5591   -0.9510    2.4809 H   0  0  0  0  0  0  0  0  0  0  0  0
   -7.4341   -0.7782   -1.9551 H   0  0  0  0  0  0  0  0  0  0  0  0
   -6.6980   -3.0771   -2.5248 H   0  0  0  0  0  0  0  0  0  0  0  0
   -4.4438    3.3345    2.2399 H   0  0  0  0  0  0  0  0  0  0  0  0
    1.5808   -1.7509    3.1662 H   0  0  0  0  0  0  0  0  0  0  0  0
   -0.9946    5.7265    1.3798 H   0  0  0  0  0  0  0  0  0  0  0  0
   -3.1127    5.3816    2.6028 H   0  0  0  0  0  0  0  0  0  0  0  0
    1.0227    2.2308    0.4422 H   0  0  0  0  0  0  0  0  0  0  0  0
    2.5286    4.0121   -1.5902 H   0  0  0  0  0  0  0  0  0  0  0  0
    2.9033    1.3958    1.1098 H   0  0  0  0  0  0  0  0  0  0  0  0
    4.4157    2.8665   -2.6726 H   0  0  0  0  0  0  0  0  0  0  0  0
    0.2854   -5.4495   -1.4309 H   0  0  0  0  0  0  0  0  0  0  0  0
    1.0963   -4.1180   -2.3736 H   0  0  0  0  0  0  0  0  0  0  0  0
    1.8750   -5.6778   -2.1464 H   0  0  0  0  0  0  0  0  0  0  0  0
    4.7726   -0.1546    1.2493 H   0  0  0  0  0  0  0  0  0  0  0  0
    6.2710    1.3487   -2.5291 H   0  0  0  0  0  0  0  0  0  0  0  0
    4.5739   -3.5069    3.2321 H   0  0  0  0  0  0  0  0  0  0  0  0
    2.9750   -3.2933    3.9343 H   0  0  0  0  0  0  0  0  0  0  0  0
    3.7769   -1.9569    2.9944 H   0  0  0  0  0  0  0  0  0  0  0  0
    8.4229   -1.1257   -1.3472 H   0  0  0  0  0  0  0  0  0  0  0  0
    8.1717    0.5899   -1.6503 H   0  0  0  0  0  0  0  0  0  0  0  0
    7.2070   -0.6723   -2.5365 H   0  0  0  0  0  0  0  0  0  0  0  0
  1 23  1  0  0  0  0
  1 34  1  0  0  0  0
  2 24  1  0  0  0  0
  2 38  1  0  0  0  0
  3 28  2  0  0  0  0
  4 35  1  0  0  0  0
  4 39  1  0  0  0  0
  5  9  1  0  0  0  0
  5 13  1  0  0  0  0
  5 40  1  0  0  0  0
  6  9  2  0  0  0  0
  6 11  1  0  0  0  0
  7 10  1  0  0  0  0
  7 11  2  0  0  0  0
  8  9  1  0  0  0  0
  8 10  1  0  0  0  0
  8 14  2  0  0  0  0
 10 15  2  0  0  0  0
 11 12  1  0  0  0  0
 12 17  2  0  0  0  0
 12 19  1  0  0  0  0
 13 16  1  0  0  0  0
 13 22  2  0  0  0  0
 14 20  1  0  0  0  0
 14 41  1  0  0  0  0
 15 21  1  0  0  0  0
 15 42  1  0  0  0  0
 16 18  2  0  0  0  0
 16 43  1  0  0  0  0
 17 23  1  0  0  0  0
 17 44  1  0  0  0  0
 18 26  1  0  0  0  0
 18 28  1  0  0  0  0
 19 25  2  0  0  0  0
 19 45  1  0  0  0  0
 20 21  2  0  0  0  0
 20 46  1  0  0  0  0
 21 47  1  0  0  0  0
 22 27  1  0  0  0  0
 22 48  1  0  0  0  0
 23 24  2  0  0  0  0
 24 25  1  0  0  0  0
 25 49  1  0  0  0  0
 26 27  2  0  0  0  0
 26 50  1  0  0  0  0
 27 51  1  0  0  0  0
 28 29  1  0  0  0  0
 29 31  2  0  0  0  0
 29 52  1  0  0  0  0
 30 31  1  0  0  0  0
 30 32  2  0  0  0  0
 30 33  1  0  0  0  0
 31 53  1  0  0  0  0
 32 36  1  0  0  0  0
 32 54  1  0  0  0  0
 33 37  2  0  0  0  0
 33 55  1  0  0  0  0
 34 56  1  0  0  0  0
 34 57  1  0  0  0  0
 34 58  1  0  0  0  0
 35 36  2  0  0  0  0
 35 37  1  0  0  0  0
 36 59  1  0  0  0  0
 37 60  1  0  0  0  0
 38 61  1  0  0  0  0
 38 62  1  0  0  0  0
 38 63  1  0  0  0  0
 39 64  1  0  0  0  0
 39 65  1  0  0  0  0
 39 66  1  0  0  0  0
M  END
> <PUBCHEM_COMPOUND_CID>
127044753

> <PUBCHEM_CONFORMER_RMSD>
1

> <PUBCHEM_CONFORMER_DIVERSEORDER>
5
46
170
100
175
174
19
54
49
158
101
109
182
27
190
139
140
107
75
108
38
173
57
65
134
177
84
67
6
72
50
142
58
66
147
97
169
136
104
94
115
82
25
153
155
127
10
164
162
154
129
99
181
131
141
112
106
83
63
167
11
146
74
102
122
121
110
180
95
168
188
78
118
77
160
145
40
184
151
157
148
116
81
2
31
91
79
53
14
90
135
161
172
43
119
186
128
24
92
126
113
64
130
187
42
163
93
96
29
183
35
56
52
178
7
120
86
117
47
166
4
37
189
159
85
89
62
143
44
73
123
36
41
124
33
39
21
1
176
132
60
34
125
48
59
152
111
22
98
80
156
17
32
28
144
114
61
88
71
69
179
9
26
55
70
68
149
15
150
137
23
30
76
8
16
45
51
105
171
165
133
12
20
13
87
103
18
3
185
138

> <PUBCHEM_MMFF94_PARTIAL_CHARGES>
55
1 -0.36
10 0.31
11 0.62
13 0.1
14 -0.15
15 -0.15
16 -0.15
17 -0.15
18 0.09
19 -0.15
2 -0.36
20 -0.15
21 -0.15
22 -0.15
23 0.08
24 0.08
25 -0.15
26 -0.15
27 -0.15
28 0.47
29 -0.14
3 -0.57
30 0.03
31 -0.18
32 -0.15
33 -0.15
34 0.28
35 0.08
36 -0.15
37 -0.15
38 0.28
39 0.28
4 -0.36
40 0.4
41 0.15
42 0.15
43 0.15
44 0.15
45 0.15
46 0.15
47 0.15
48 0.15
49 0.15
5 -0.6
50 0.15
51 0.15
52 0.15
53 0.15
54 0.15
55 0.15
59 0.15
6 -0.62
60 0.15
7 -0.62
9 0.41

> <PUBCHEM_EFFECTIVE_ROTOR_COUNT>
9

> <PUBCHEM_PHARMACOPHORE_FEATURES>
12
1 1 acceptor
1 2 acceptor
1 3 acceptor
1 4 acceptor
1 5 donor
3 5 6 9 cation
3 6 7 11 cation
6 12 17 19 23 24 25 rings
6 13 16 18 22 26 27 rings
6 30 32 33 35 36 37 rings
6 6 7 8 9 10 11 rings
6 8 10 14 15 20 21 rings

> <PUBCHEM_HEAVY_ATOM_COUNT>
39

> <PUBCHEM_ATOM_DEF_STEREO_COUNT>
0

> <PUBCHEM_ATOM_UDEF_STEREO_COUNT>
0

> <PUBCHEM_BOND_DEF_STEREO_COUNT>
1

> <PUBCHEM_BOND_UDEF_STEREO_COUNT>
0

> <PUBCHEM_ISOTOPIC_ATOM_COUNT>
0

> <PUBCHEM_COMPONENT_COUNT>
1

> <PUBCHEM_CACTVS_TAUTO_COUNT>
9

> <PUBCHEM_CONFORMER_ID>
07928C9100000005

> <PUBCHEM_MMFF94_ENERGY>
166.7056

> <PUBCHEM_FEATURE_SELFOVERLAP>
61.075

> <PUBCHEM_SHAPE_FINGERPRINT>
10190206 1 18408890625071943964
10305334 12 18269287771954540245
10675989 125 18191018100597083952
10677394 325 18123171430737520549
11170278 133 16963250284451301044
11285246 1 18127148569318595577
11513181 2 18126571115318644910
13636023 20 17916876707978329750
14004919 189 18411426124565839523
14068700 675 18342454889268158053
14784336 7 18267296715357205137
15160629 131 18202004322361461031
15351339 4 18119802762256152873
15406563 185 18343023303437364376
15420108 30 18053393106527698337
15927050 60 18052268297510393652
15968369 26 17260167313342374609
17627616 140 18261110742469353968
19311894 1 18198348561503962775
20764821 26 18046624508556442620
20775438 99 16834291292653877951
3729539 64 17978511163712564157
437795 70 18269574800993189254
45266715 3 17979903140416226825
50080093 196 18044090155402364578
5047190 2 18262520265416609360
6371009 1 18336260219645642376
6608658 132 18410007723799564531

> <PUBCHEM_SHAPE_MULTIPOLES>
764.18
14.04
8.25
2.17
8.16
3.34
0.84
-3.36
-9.21
-1.17
1.52
0.89
-1.2
-5.8

> <PUBCHEM_SHAPE_SELFOVERLAP>
1686.465

> <PUBCHEM_SHAPE_VOLUME>
409.8

> <PUBCHEM_COORDINATE_TYPE>
2
5
10

$$$$