9
 OpenBabel03292021423D

117125  0  0  1  0  0  0  0  0999 V2000
   20.5106    4.4608   -0.0286 C   0  0  0  0  0  0  0  0  0  0  0  0
   20.8475    3.2822   -0.9343 C   0  0  0  0  0  0  0  0  0  0  0  0
   21.0585    1.9283   -0.2069 C   0  0  2  0  0  0  0  0  0  0  0  0
   22.2300    2.0540    0.6049 O   0  0  0  0  0  0  0  0  0  0  0  0
   21.3305    0.7958   -1.2680 C   0  0  0  0  0  0  0  0  0  0  0  0
   19.9920    0.3573   -1.8872 C   0  0  2  0  0  0  0  0  0  0  0  0
   19.1643   -0.1999   -0.7221 C   0  0  0  0  0  0  0  0  0  0  0  0
   18.7095    0.8760    0.1402 N   0  0  3  0  0  0  0  0  0  0  0  0
   17.6953    1.7862   -0.4399 C   0  0  0  0  0  0  0  0  0  0  0  0
   16.7435    1.2820   -1.5701 C   0  0  0  0  0  0  0  0  0  0  0  0
   17.1883    1.5750   -3.0062 C   0  0  0  0  0  0  0  0  0  0  0  0
   17.9500    0.8205   -3.9235 C   0  0  0  0  0  0  0  0  0  0  0  0
   18.2585    1.6723   -4.9634 N   0  0  0  0  0  0  0  0  0  0  0  0
   17.4960    2.8060   -4.9146 C   0  0  0  0  0  0  0  0  0  0  0  0
   17.3814    3.8511   -5.8377 C   0  0  0  0  0  0  0  0  0  0  0  0
   16.4784    4.8745   -5.5296 C   0  0  0  0  0  0  0  0  0  0  0  0
   15.7459    4.8629   -4.3483 C   0  0  0  0  0  0  0  0  0  0  0  0
   15.9141    3.8252   -3.4221 C   0  0  0  0  0  0  0  0  0  0  0  0
   16.7968    2.7681   -3.7103 C   0  0  0  0  0  0  0  0  0  0  0  0
   18.5567   -0.5924   -3.8873 C   0  0  1  0  0  0  0  0  0  0  0  0
   17.5926   -1.5168   -2.9297 C   0  0  0  0  0  0  0  0  0  0  0  0
   16.3984   -1.3724   -2.7756 O   0  0  0  0  0  0  0  0  0  0  0  0
   18.2854   -2.5741   -2.3848 O   0  0  0  0  0  0  0  0  0  0  0  0
   17.4786   -3.5125   -1.6633 C   0  0  0  0  0  0  0  0  0  0  0  0
   18.5988   -1.3269   -5.2892 C   0  0  0  0  0  0  0  0  0  0  0  0
   18.5019   -1.1130   -6.6843 C   0  0  0  0  0  0  0  0  0  0  0  0
   18.6055   -2.2637   -7.5621 C   0  0  0  0  0  0  0  0  0  0  0  0
   19.4321   -3.2403   -7.0850 C   0  0  0  0  0  0  0  0  0  0  0  0
   19.1852   -3.5009   -5.7530 C   0  0  0  0  0  0  0  0  0  0  0  0
   18.3060   -2.6289   -5.1200 C   0  0  0  0  0  0  0  0  0  0  0  0
   16.8984   -2.8517   -5.2316 O   0  0  0  0  0  0  0  0  0  0  0  0
   15.9882   -1.7079   -5.4926 C   0  0  0  0  0  0  0  0  0  0  0  0
   19.8254   -4.2065   -8.0358 N   0  0  0  0  0  0  0  0  0  0  0  0
   20.8249   -3.6846   -8.9799 C   0  0  0  0  0  0  0  0  0  0  0  0
   18.5117   -4.5154   -8.6796 C   0  0  1  0  0  0  0  0  0  0  0  0
   18.0766   -5.9480   -8.1349 C   0  0  1  0  0  0  0  0  0  0  0  0
   17.4168   -6.6686   -9.2017 O   0  0  0  0  0  0  0  0  0  0  0  0
   19.3177   -6.8062   -7.7407 C   0  0  0  0  0  0  0  0  0  0  0  0
   19.7301   -7.0120   -6.6024 O   0  0  0  0  0  0  0  0  0  0  0  0
   19.8870   -7.3727   -8.8582 O   0  0  0  0  0  0  0  0  0  0  0  0
   20.9678   -8.2604   -8.5517 C   0  0  0  0  0  0  0  0  0  0  0  0
   17.1659   -5.8209   -6.9006 C   0  0  2  0  0  0  0  0  0  0  0  0
   17.0139   -7.0301   -6.1015 O   0  0  0  0  0  0  0  0  0  0  0  0
   17.3352   -6.9010   -4.7689 C   0  0  0  0  0  0  0  0  0  0  0  0
   17.0100   -8.1189   -3.9720 C   0  0  0  0  0  0  0  0  0  0  0  0
   17.7638   -5.8901   -4.2190 O   0  0  0  0  0  0  0  0  0  0  0  0
   15.8162   -5.1660   -7.2273 C   0  0  2  0  0  0  0  0  0  0  0  0
   14.9839   -4.9502   -5.8918 C   0  0  0  0  0  0  0  0  0  0  0  0
   14.2067   -6.1328   -5.2943 C   0  0  0  0  0  0  0  0  0  0  0  0
   14.8625   -6.0463   -8.0450 C   0  0  0  0  0  0  0  0  0  0  0  0
   13.8840   -5.4682   -8.7621 C   0  0  0  0  0  0  0  0  0  0  0  0
   13.9552   -4.0089   -9.1027 C   0  0  0  0  0  0  0  0  0  0  0  0
   15.3725   -3.6777   -9.2373 N   0  0  3  0  0  0  0  0  0  0  0  0
   15.6774   -2.3731   -9.7752 C   0  0  0  0  0  0  0  0  0  0  0  0
   17.2071   -2.3902   -9.6824 C   0  0  0  0  0  0  0  0  0  0  0  0
   17.5597   -3.2100   -8.4006 C   0  0  2  0  0  0  0  0  0  0  0  0
   16.1055   -3.7524   -7.9486 C   0  0  2  0  0  0  0  0  0  0  0  0
   19.9960   -0.5109   -3.1827 C   0  0  0  0  0  0  0  0  0  0  0  0
   19.8752    1.5363    0.7487 C   0  0  0  0  0  0  0  0  0  0  0  0
   20.5167    5.3867   -0.6137 H   0  0  0  0  0  0  0  0  0  0  0  0
   21.2339    4.5652    0.7837 H   0  0  0  0  0  0  0  0  0  0  0  0
   19.5093    4.3648    0.4025 H   0  0  0  0  0  0  0  0  0  0  0  0
   21.7729    3.5374   -1.4667 H   0  0  0  0  0  0  0  0  0  0  0  0
   20.0674    3.2162   -1.6984 H   0  0  0  0  0  0  0  0  0  0  0  0
   22.9841    2.2436    0.0151 H   0  0  0  0  0  0  0  0  0  0  0  0
   21.8354   -0.0514   -0.7866 H   0  0  0  0  0  0  0  0  0  0  0  0
   22.0216    1.1592   -2.0365 H   0  0  0  0  0  0  0  0  0  0  0  0
   19.5665    1.2979   -2.2206 H   0  0  0  0  0  0  0  0  0  0  0  0
   19.7632   -0.9227   -0.1474 H   0  0  0  0  0  0  0  0  0  0  0  0
   18.2870   -0.7646   -0.9762 H   0  0  0  0  0  0  0  0  0  0  0  0
   18.1342    2.7348   -0.7551 H   0  0  0  0  0  0  0  0  0  0  0  0
   17.0404    2.0284    0.4088 H   0  0  0  0  0  0  0  0  0  0  0  0
   15.7820    1.7943   -1.4286 H   0  0  0  0  0  0  0  0  0  0  0  0
   16.4807    0.2467   -1.3843 H   0  0  0  0  0  0  0  0  0  0  0  0
   18.9129    1.4653   -5.7035 H   0  0  0  0  0  0  0  0  0  0  0  0
   17.9447    3.8650   -6.7569 H   0  0  0  0  0  0  0  0  0  0  0  0
   16.3388    5.6941   -6.2353 H   0  0  0  0  0  0  0  0  0  0  0  0
   15.0390    5.6597   -4.1351 H   0  0  0  0  0  0  0  0  0  0  0  0
   15.3330    3.8238   -2.5029 H   0  0  0  0  0  0  0  0  0  0  0  0
   17.8489   -4.5181   -1.8745 H   0  0  0  0  0  0  0  0  0  0  0  0
   16.4160   -3.4892   -1.9391 H   0  0  0  0  0  0  0  0  0  0  0  0
   17.5831   -3.3157   -0.5965 H   0  0  0  0  0  0  0  0  0  0  0  0
   18.4450   -0.1260   -7.1280 H   0  0  0  0  0  0  0  0  0  0  0  0
   19.4253   -4.4646   -5.3234 H   0  0  0  0  0  0  0  0  0  0  0  0
   14.9631   -2.0122   -5.2729 H   0  0  0  0  0  0  0  0  0  0  0  0
   16.0181   -1.3796   -6.5403 H   0  0  0  0  0  0  0  0  0  0  0  0
   16.1799   -0.7983   -4.9294 H   0  0  0  0  0  0  0  0  0  0  0  0
   21.6162   -3.1271   -8.4669 H   0  0  0  0  0  0  0  0  0  0  0  0
   20.3802   -3.0355   -9.7461 H   0  0  0  0  0  0  0  0  0  0  0  0
   21.2975   -4.5272   -9.4967 H   0  0  0  0  0  0  0  0  0  0  0  0
   18.6487   -4.6160   -9.7655 H   0  0  0  0  0  0  0  0  0  0  0  0
   18.0951   -6.8355   -9.8826 H   0  0  0  0  0  0  0  0  0  0  0  0
   21.4769   -8.5162   -9.4848 H   0  0  0  0  0  0  0  0  0  0  0  0
   20.5790   -9.1825   -8.1057 H   0  0  0  0  0  0  0  0  0  0  0  0
   21.6986   -7.7918   -7.8839 H   0  0  0  0  0  0  0  0  0  0  0  0
   17.6555   -5.1166   -6.2552 H   0  0  0  0  0  0  0  0  0  0  0  0
   16.6998   -8.9465   -4.6093 H   0  0  0  0  0  0  0  0  0  0  0  0
   16.1916   -7.8708   -3.2847 H   0  0  0  0  0  0  0  0  0  0  0  0
   17.8888   -8.4164   -3.3949 H   0  0  0  0  0  0  0  0  0  0  0  0
   15.6507   -4.6216   -5.0975 H   0  0  0  0  0  0  0  0  0  0  0  0
   14.2563   -4.1420   -6.0362 H   0  0  0  0  0  0  0  0  0  0  0  0
   14.6615   -7.1071   -5.4939 H   0  0  0  0  0  0  0  0  0  0  0  0
   13.1835   -6.1593   -5.6777 H   0  0  0  0  0  0  0  0  0  0  0  0
   14.1445   -6.0183   -4.2070 H   0  0  0  0  0  0  0  0  0  0  0  0
   14.8888   -7.1238   -7.9051 H   0  0  0  0  0  0  0  0  0  0  0  0
   13.0666   -6.0609   -9.1564 H   0  0  0  0  0  0  0  0  0  0  0  0
   13.4315   -3.3951   -8.3575 H   0  0  0  0  0  0  0  0  0  0  0  0
   13.4477   -3.8720  -10.0631 H   0  0  0  0  0  0  0  0  0  0  0  0
   15.2505   -1.5687   -9.1622 H   0  0  0  0  0  0  0  0  0  0  0  0
   15.3332   -2.2518  -10.8025 H   0  0  0  0  0  0  0  0  0  0  0  0
   17.5702   -1.3563   -9.6552 H   0  0  0  0  0  0  0  0  0  0  0  0
   17.6197   -2.8639  -10.5789 H   0  0  0  0  0  0  0  0  0  0  0  0
   15.6269   -3.0080   -7.3374 H   0  0  0  0  0  0  0  0  0  0  0  0
   20.7026   -0.0619   -3.8939 H   0  0  0  0  0  0  0  0  0  0  0  0
   20.3909   -1.5110   -2.9621 H   0  0  0  0  0  0  0  0  0  0  0  0
   20.2797    0.8331    1.4896 H   0  0  0  0  0  0  0  0  0  0  0  0
   19.5541    2.3833    1.3645 H   0  0  0  0  0  0  0  0  0  0  0  0
  1  2  1  0  0  0  0
  1 60  1  0  0  0  0
  1 61  1  0  0  0  0
  1 62  1  0  0  0  0
  2  3  1  0  0  0  0
  2 63  1  0  0  0  0
  2 64  1  0  0  0  0
  3  4  1  1  0  0  0
  3  5  1  0  0  0  0
  3 59  1  0  0  0  0
  4 65  1  0  0  0  0
  5  6  1  0  0  0  0
  5 66  1  0  0  0  0
  5 67  1  0  0  0  0
  6  7  1  0  0  0  0
  6 58  1  0  0  0  0
  6 68  1  6  0  0  0
  7  8  1  0  0  0  0
  7 69  1  0  0  0  0
  7 70  1  0  0  0  0
  8  9  1  0  0  0  0
  8 59  1  0  0  0  0
  9 10  1  0  0  0  0
  9 71  1  0  0  0  0
  9 72  1  0  0  0  0
 10 11  1  0  0  0  0
 10 73  1  0  0  0  0
 10 74  1  0  0  0  0
 11 12  2  0  0  0  0
 11 19  1  0  0  0  0
 12 13  1  0  0  0  0
 12 20  1  0  0  0  0
 13 14  1  0  0  0  0
 13 75  1  0  0  0  0
 14 15  1  0  0  0  0
 14 19  2  0  0  0  0
 15 16  2  0  0  0  0
 15 76  1  0  0  0  0
 16 17  1  0  0  0  0
 16 77  1  0  0  0  0
 17 18  2  0  0  0  0
 17 78  1  0  0  0  0
 18 19  1  0  0  0  0
 18 79  1  0  0  0  0
 20 58  1  0  0  0  0
 20 25  1  0  0  0  0
 20 21  1  1  0  0  0
 21 22  2  0  0  0  0
 21 23  1  0  0  0  0
 23 24  1  0  0  0  0
 24 80  1  0  0  0  0
 24 81  1  0  0  0  0
 24 82  1  0  0  0  0
 25 26  1  0  0  0  0
 25 30  2  0  0  0  0
 26 27  2  0  0  0  0
 26 83  1  0  0  0  0
 27 28  1  0  0  0  0
 28 29  2  0  0  0  0
 28 33  1  0  0  0  0
 29 30  1  0  0  0  0
 29 84  1  0  0  0  0
 30 31  1  0  0  0  0
 31 32  1  0  0  0  0
 32 85  1  0  0  0  0
 32 86  1  0  0  0  0
 32 87  1  0  0  0  0
 33 35  1  0  0  0  0
 33 34  1  0  0  0  0
 34 88  1  0  0  0  0
 34 89  1  0  0  0  0
 34 90  1  0  0  0  0
 35 36  1  0  0  0  0
 35 56  1  0  0  0  0
 35 91  1  6  0  0  0
 36 42  1  0  0  0  0
 36 38  1  1  0  0  0
 36 37  1  0  0  0  0
 37 92  1  0  0  0  0
 38 39  2  0  0  0  0
 38 40  1  0  0  0  0
 40 41  1  0  0  0  0
 41 93  1  0  0  0  0
 41 94  1  0  0  0  0
 41 95  1  0  0  0  0
 42 47  1  0  0  0  0
 42 43  1  0  0  0  0
 42 96  1  1  0  0  0
 43 44  1  0  0  0  0
 44 45  1  0  0  0  0
 44 46  2  0  0  0  0
 45 97  1  0  0  0  0
 45 98  1  0  0  0  0
 45 99  1  0  0  0  0
 47 50  1  0  0  0  0
 47 57  1  0  0  0  0
 47 48  1  1  0  0  0
 48 49  1  0  0  0  0
 48100  1  0  0  0  0
 48101  1  0  0  0  0
 49102  1  0  0  0  0
 49103  1  0  0  0  0
 49104  1  0  0  0  0
 50 51  2  0  0  0  0
 50105  1  0  0  0  0
 51 52  1  0  0  0  0
 51106  1  0  0  0  0
 52 53  1  0  0  0  0
 52107  1  0  0  0  0
 52108  1  0  0  0  0
 53 54  1  0  0  0  0
 53 57  1  0  0  0  0
 54 55  1  0  0  0  0
 54109  1  0  0  0  0
 54110  1  0  0  0  0
 55 56  1  0  0  0  0
 55111  1  0  0  0  0
 55112  1  0  0  0  0
 56 27  1  1  0  0  0
 56 57  1  0  0  0  0
 57113  1  1  0  0  0
 58114  1  0  0  0  0
 58115  1  0  0  0  0
 59116  1  0  0  0  0
 59117  1  0  0  0  0
M  END
>  <Energy>
539.593

$$$$