152
 OpenBabel03292022013D

 50 53  0  0  0  0  0  0  0  0999 V2000
    3.0999   -2.1728    1.1275 C   0  0  0  0  0  0  0  0  0  0  0  0
    3.4214   -1.0404    0.3271 O   0  0  0  0  0  0  0  0  0  0  0  0
    3.4478    0.1579    0.9892 C   0  0  0  0  0  0  0  0  0  0  0  0
    4.1925    1.1605    0.3676 C   0  0  0  0  0  0  0  0  0  0  0  0
    4.3122    2.4153    0.9629 C   0  0  0  0  0  0  0  0  0  0  0  0
    3.6470    2.6741    2.1583 C   0  0  0  0  0  0  0  0  0  0  0  0
    2.8312    1.7009    2.7788 C   0  0  0  0  0  0  0  0  0  0  0  0
    2.0465    2.0206    3.9819 C   0  0  0  0  0  0  0  0  0  0  0  0
    2.2239    3.2322    4.4963 N   0  0  0  0  0  0  0  0  0  0  0  0
    1.5370    3.5639    5.5996 C   0  0  0  0  0  0  0  0  0  0  0  0
    2.0661    4.6418    6.3795 N   0  0  0  0  0  0  0  0  0  0  0  0
    3.4943    4.7942    6.3593 C   0  0  0  0  0  0  0  0  0  0  0  0
    4.3274    3.6723    6.4456 C   0  0  0  0  0  0  0  0  0  0  0  0
    5.7021    3.7828    6.2574 C   0  0  0  0  0  0  0  0  0  0  0  0
    6.2834    5.0343    6.0348 C   0  0  0  0  0  0  0  0  0  0  0  0
    7.6370    5.1508    5.8496 O   0  0  0  0  0  0  0  0  0  0  0  0
    8.2516    4.1007    5.1042 C   0  0  0  0  0  0  0  0  0  0  0  0
    5.4700    6.1827    6.0768 C   0  0  0  0  0  0  0  0  0  0  0  0
    5.8517    7.4946    5.9505 O   0  0  0  0  0  0  0  0  0  0  0  0
    7.1644    7.7672    5.4876 C   0  0  0  0  0  0  0  0  0  0  0  0
    4.0774    6.0525    6.2499 C   0  0  0  0  0  0  0  0  0  0  0  0
    0.4664    2.7911    6.0531 C   0  0  0  0  0  0  0  0  0  0  0  0
   -0.4863    3.2001    7.0166 C   0  0  0  0  0  0  0  0  0  0  0  0
   -1.4378    2.2966    7.4835 C   0  0  0  0  0  0  0  0  0  0  0  0
   -1.4018    0.9828    7.0378 C   0  0  0  0  0  0  0  0  0  0  0  0
   -0.4779    0.5980    6.0610 C   0  0  0  0  0  0  0  0  0  0  0  0
    0.4247    1.5049    5.5103 C   0  0  0  0  0  0  0  0  0  0  0  0
    1.2190    1.1010    4.5085 N   0  0  0  0  0  0  0  0  0  0  0  0
    2.7689    0.4312    2.1781 C   0  0  0  0  0  0  0  0  0  0  0  0
    3.2584   -3.0672    0.5182 H   0  0  0  0  0  0  0  0  0  0  0  0
    2.0477   -2.1607    1.4287 H   0  0  0  0  0  0  0  0  0  0  0  0
    3.7596   -2.2390    1.9998 H   0  0  0  0  0  0  0  0  0  0  0  0
    4.6873    0.9622   -0.5778 H   0  0  0  0  0  0  0  0  0  0  0  0
    4.9069    3.1902    0.4897 H   0  0  0  0  0  0  0  0  0  0  0  0
    3.7471    3.6647    2.6048 H   0  0  0  0  0  0  0  0  0  0  0  0
    1.8309    4.4471    7.3515 H   0  0  0  0  0  0  0  0  0  0  0  0
    3.9093    2.6766    6.5825 H   0  0  0  0  0  0  0  0  0  0  0  0
    6.2849    2.8707    6.2786 H   0  0  0  0  0  0  0  0  0  0  0  0
    9.2776    4.4073    4.8809 H   0  0  0  0  0  0  0  0  0  0  0  0
    7.7361    3.9296    4.1518 H   0  0  0  0  0  0  0  0  0  0  0  0
    8.3137    3.1762    5.6872 H   0  0  0  0  0  0  0  0  0  0  0  0
    7.2341    8.8452    5.3120 H   0  0  0  0  0  0  0  0  0  0  0  0
    7.3650    7.2701    4.5330 H   0  0  0  0  0  0  0  0  0  0  0  0
    7.9098    7.5164    6.2480 H   0  0  0  0  0  0  0  0  0  0  0  0
    3.4502    6.9388    6.2338 H   0  0  0  0  0  0  0  0  0  0  0  0
   -0.5137    4.2297    7.3632 H   0  0  0  0  0  0  0  0  0  0  0  0
   -2.1950    2.6162    8.1949 H   0  0  0  0  0  0  0  0  0  0  0  0
   -2.1066    0.2516    7.4307 H   0  0  0  0  0  0  0  0  0  0  0  0
   -0.4636   -0.4320    5.7158 H   0  0  0  0  0  0  0  0  0  0  0  0
    2.1511   -0.3271    2.6505 H   0  0  0  0  0  0  0  0  0  0  0  0
  1  2  1  0  0  0  0
  1 30  1  0  0  0  0
  1 31  1  0  0  0  0
  1 32  1  0  0  0  0
  2  3  1  0  0  0  0
  3  4  1  0  0  0  0
  3 29  2  0  0  0  0
  4  5  2  0  0  0  0
  4 33  1  0  0  0  0
  5  6  1  0  0  0  0
  5 34  1  0  0  0  0
  6  7  2  0  0  0  0
  6 35  1  0  0  0  0
  7  8  1  0  0  0  0
  7 29  1  0  0  0  0
  8  9  1  0  0  0  0
  8 28  2  0  0  0  0
  9 10  2  0  0  0  0
 10 11  1  0  0  0  0
 10 22  1  0  0  0  0
 11 12  1  0  0  0  0
 11 36  1  0  0  0  0
 12 13  1  0  0  0  0
 12 21  2  0  0  0  0
 13 14  2  0  0  0  0
 13 37  1  0  0  0  0
 14 15  1  0  0  0  0
 14 38  1  0  0  0  0
 15 16  1  0  0  0  0
 15 18  2  0  0  0  0
 16 17  1  0  0  0  0
 17 39  1  0  0  0  0
 17 40  1  0  0  0  0
 17 41  1  0  0  0  0
 18 19  1  0  0  0  0
 18 21  1  0  0  0  0
 19 20  1  0  0  0  0
 20 42  1  0  0  0  0
 20 43  1  0  0  0  0
 20 44  1  0  0  0  0
 21 45  1  0  0  0  0
 22 23  1  0  0  0  0
 22 27  2  0  0  0  0
 23 24  2  0  0  0  0
 23 46  1  0  0  0  0
 24 25  1  0  0  0  0
 24 47  1  0  0  0  0
 25 26  2  0  0  0  0
 25 48  1  0  0  0  0
 26 27  1  0  0  0  0
 26 49  1  0  0  0  0
 27 28  1  0  0  0  0
 29 50  1  0  0  0  0
M  END
>  <Energy>
71.7571

$$$$