153
 OpenBabel03292022013D

 63 67  0  0  1  0  0  0  0  0999 V2000
    1.7283   -0.2706   -0.3868 C   0  0  0  0  0  0  0  0  0  0  0  0
    2.8304    0.5878    0.2012 C   0  0  0  0  0  0  0  0  0  0  0  0
    4.1379   -0.1700    0.4487 C   0  0  1  0  0  0  0  0  0  0  0  0
    5.1256    0.7689    1.3723 C   0  0  0  0  0  0  0  0  0  0  0  0
    6.4404    1.3066    0.8575 N   0  0  0  0  0  0  0  0  0  0  0  0
    6.4206    2.7490    0.5811 C   0  0  0  0  0  0  0  0  0  0  0  0
    6.9879    0.5280   -0.3063 C   0  0  1  0  0  0  0  0  0  0  0  0
    7.6754   -0.7430    0.3967 C   0  0  0  0  0  0  0  0  0  0  0  0
    7.5623   -2.2140   -0.0193 C   0  0  0  0  0  0  0  0  0  0  0  0
    7.0713   -2.7985   -1.1802 C   0  0  0  0  0  0  0  0  0  0  0  0
    7.3946   -4.1281   -1.1568 N   0  0  0  0  0  0  0  0  0  0  0  0
    7.6468   -4.5137    0.1386 C   0  0  0  0  0  0  0  0  0  0  0  0
    7.7681   -5.7949    0.6953 C   0  0  0  0  0  0  0  0  0  0  0  0
    7.9081   -5.8847    2.0796 C   0  0  0  0  0  0  0  0  0  0  0  0
    7.9558   -4.7360    2.8664 C   0  0  0  0  0  0  0  0  0  0  0  0
    7.9003   -3.4624    2.2830 C   0  0  0  0  0  0  0  0  0  0  0  0
    7.7360   -3.3358    0.8840 C   0  0  0  0  0  0  0  0  0  0  0  0
    6.3308   -2.1936   -2.2591 C   0  0  0  0  0  0  0  0  0  0  0  0
    7.0810   -2.0088   -3.3052 N   0  0  0  0  0  0  0  0  0  0  0  0
    6.7220   -1.3155   -4.4049 N   0  0  0  0  0  0  0  0  0  0  0  0
    7.7278   -0.5019   -4.9877 C   0  0  0  0  0  0  0  0  0  0  0  0
    9.0982   -0.7632   -4.8251 C   0  0  0  0  0  0  0  0  0  0  0  0
   10.0954    0.0388   -5.2953 N   0  0  0  0  0  0  0  0  0  0  0  0
    9.6798    1.1380   -5.9559 C   0  0  0  0  0  0  0  0  0  0  0  0
    8.3360    1.3965   -6.1518 C   0  0  0  0  0  0  0  0  0  0  0  0
    7.3481    0.5957   -5.6834 N   0  0  0  0  0  0  0  0  0  0  0  0
    4.8540   -1.7771   -1.8828 C   0  0  0  0  0  0  0  0  0  0  0  0
    4.9512   -0.7043   -0.7710 C   0  0  1  0  0  0  0  0  0  0  0  0
    5.7816    0.4634   -1.2409 C   0  0  2  0  0  0  0  0  0  0  0  0
    5.7481    0.9534   -2.6853 C   0  0  0  0  0  0  0  0  0  0  0  0
    4.9991    0.4899   -3.5395 O   0  0  0  0  0  0  0  0  0  0  0  0
    6.3424    2.1762   -2.7980 O   0  0  0  0  0  0  0  0  0  0  0  0
    5.7568    2.9743   -3.8360 C   0  0  0  0  0  0  0  0  0  0  0  0
    0.7699    0.2533   -0.2971 H   0  0  0  0  0  0  0  0  0  0  0  0
    1.6354   -1.2209    0.1488 H   0  0  0  0  0  0  0  0  0  0  0  0
    1.9091   -0.4748   -1.4440 H   0  0  0  0  0  0  0  0  0  0  0  0
    2.4672    0.9507    1.1736 H   0  0  0  0  0  0  0  0  0  0  0  0
    2.9881    1.4778   -0.4153 H   0  0  0  0  0  0  0  0  0  0  0  0
    3.8814   -1.0323    1.0846 H   0  0  0  0  0  0  0  0  0  0  0  0
    5.3919    0.1512    2.2392 H   0  0  0  0  0  0  0  0  0  0  0  0
    4.5470    1.5988    1.7984 H   0  0  0  0  0  0  0  0  0  0  0  0
    6.3904    3.3109    1.5198 H   0  0  0  0  0  0  0  0  0  0  0  0
    5.5698    3.0682   -0.0294 H   0  0  0  0  0  0  0  0  0  0  0  0
    7.3341    3.0635    0.0619 H   0  0  0  0  0  0  0  0  0  0  0  0
    7.8069    1.0715   -0.7946 H   0  0  0  0  0  0  0  0  0  0  0  0
    7.3538   -0.7540    1.4494 H   0  0  0  0  0  0  0  0  0  0  0  0
    8.7504   -0.5234    0.4669 H   0  0  0  0  0  0  0  0  0  0  0  0
    7.2675   -4.7723   -1.9286 H   0  0  0  0  0  0  0  0  0  0  0  0
    7.7198   -6.6894    0.0801 H   0  0  0  0  0  0  0  0  0  0  0  0
    7.9633   -6.8633    2.5498 H   0  0  0  0  0  0  0  0  0  0  0  0
    8.0239   -4.8295    3.9481 H   0  0  0  0  0  0  0  0  0  0  0  0
    7.9191   -2.5818    2.9162 H   0  0  0  0  0  0  0  0  0  0  0  0
    5.8208   -0.8091   -4.4619 H   0  0  0  0  0  0  0  0  0  0  0  0
    9.4386   -1.6329   -4.2740 H   0  0  0  0  0  0  0  0  0  0  0  0
   10.4498    1.8004   -6.3245 H   0  0  0  0  0  0  0  0  0  0  0  0
    8.0103    2.2900   -6.6795 H   0  0  0  0  0  0  0  0  0  0  0  0
    4.3610   -2.6700   -1.4745 H   0  0  0  0  0  0  0  0  0  0  0  0
    4.2765   -1.4870   -2.7576 H   0  0  0  0  0  0  0  0  0  0  0  0
    5.5192   -1.3246   -0.0942 H   0  0  0  0  0  0  0  0  0  0  0  0
    5.1262    1.3116   -0.9781 H   0  0  0  0  0  0  0  0  0  0  0  0
    6.1073    4.0028   -3.7145 H   0  0  0  0  0  0  0  0  0  0  0  0
    4.6632    2.9798   -3.7529 H   0  0  0  0  0  0  0  0  0  0  0  0
    6.0497    2.6184   -4.8249 H   0  0  0  0  0  0  0  0  0  0  0  0
  1  2  1  0  0  0  0
  1 34  1  0  0  0  0
  1 35  1  0  0  0  0
  1 36  1  0  0  0  0
  2  3  1  0  0  0  0
  2 37  1  0  0  0  0
  2 38  1  0  0  0  0
  3  4  1  0  0  0  0
  3 28  1  0  0  0  0
  3 39  1  6  0  0  0
  4  5  1  0  0  0  0
  4 40  1  0  0  0  0
  4 41  1  0  0  0  0
  5  6  1  0  0  0  0
  5  7  1  0  0  0  0
  6 42  1  0  0  0  0
  6 43  1  0  0  0  0
  6 44  1  0  0  0  0
  7  8  1  0  0  0  0
  7 29  1  0  0  0  0
  7 45  1  6  0  0  0
  8  9  1  0  0  0  0
  8 46  1  0  0  0  0
  8 47  1  0  0  0  0
  9 10  2  0  0  0  0
  9 17  1  0  0  0  0
 10 11  1  0  0  0  0
 10 18  1  0  0  0  0
 11 12  1  0  0  0  0
 11 48  1  0  0  0  0
 12 13  1  0  0  0  0
 12 17  2  0  0  0  0
 13 14  2  0  0  0  0
 13 49  1  0  0  0  0
 14 15  1  0  0  0  0
 14 50  1  0  0  0  0
 15 16  2  0  0  0  0
 15 51  1  0  0  0  0
 16 17  1  0  0  0  0
 16 52  1  0  0  0  0
 18 19  2  0  0  0  0
 18 27  1  0  0  0  0
 19 20  1  0  0  0  0
 20 21  1  0  0  0  0
 20 53  1  0  0  0  0
 21 22  1  0  0  0  0
 21 26  2  0  0  0  0
 22 23  2  0  0  0  0
 22 54  1  0  0  0  0
 23 24  1  0  0  0  0
 24 25  2  0  0  0  0
 24 55  1  0  0  0  0
 25 26  1  0  0  0  0
 25 56  1  0  0  0  0
 27 28  1  0  0  0  0
 27 57  1  0  0  0  0
 27 58  1  0  0  0  0
 28 29  1  0  0  0  0
 28 59  1  1  0  0  0
 29 30  1  0  0  0  0
 29 60  1  1  0  0  0
 30 31  2  0  0  0  0
 30 32  1  0  0  0  0
 32 33  1  0  0  0  0
 33 61  1  0  0  0  0
 33 62  1  0  0  0  0
 33 63  1  0  0  0  0
M  END
>  <Energy>
250.719

$$$$