155
 OpenBabel03292022013D

 98103  0  0  0  0  0  0  0  0999 V2000
    1.3624   -2.0775    5.6527 C   0  0  0  0  0  0  0  0  0  0  0  0
    2.7801   -2.1609    5.5957 O   0  0  0  0  0  0  0  0  0  0  0  0
    3.2047   -3.0082    4.5304 C   0  0  0  0  0  0  0  0  0  0  0  0
    4.7254   -3.0697    4.5031 C   0  0  0  0  0  0  0  0  0  0  0  0
    5.1276   -3.9214    3.4321 O   0  0  0  0  0  0  0  0  0  0  0  0
    6.5452   -4.0227    3.3482 C   0  0  0  0  0  0  0  0  0  0  0  0
    6.9013   -4.9425    2.1890 C   0  0  0  0  0  0  0  0  0  0  0  0
    8.3166   -5.0455    2.0965 O   0  0  0  0  0  0  0  0  0  0  0  0
    8.7138   -5.8851    1.0139 C   0  0  0  0  0  0  0  0  0  0  0  0
   10.2315   -5.9152    0.9846 C   0  0  0  0  0  0  0  0  0  0  0  0
   10.6789   -6.6928   -0.1235 O   0  0  0  0  0  0  0  0  0  0  0  0
   12.0248   -6.9540   -0.1847 C   0  0  0  0  0  0  0  0  0  0  0  0
   12.9451   -6.3199    0.6681 C   0  0  0  0  0  0  0  0  0  0  0  0
   14.2990   -6.6497    0.6445 C   0  0  0  0  0  0  0  0  0  0  0  0
   14.7579   -7.5950   -0.2760 C   0  0  0  0  0  0  0  0  0  0  0  0
   13.8692   -8.1818   -1.1754 C   0  0  0  0  0  0  0  0  0  0  0  0
   12.4985   -7.8811   -1.1322 C   0  0  0  0  0  0  0  0  0  0  0  0
   11.7928   -8.5912   -2.0687 O   0  0  0  0  0  0  0  0  0  0  0  0
   10.3784   -8.4943   -2.0820 C   0  0  0  0  0  0  0  0  0  0  0  0
   16.2061   -7.9819   -0.1855 C   0  0  0  0  0  0  0  0  0  0  0  0
   16.5496   -8.0867    1.3073 C   0  0  0  0  0  0  0  0  0  0  0  0
   16.3563   -6.8434    2.0845 N   0  0  0  0  0  0  0  0  0  0  0  0
   17.5942   -6.0655    2.2451 C   0  0  0  0  0  0  0  0  0  0  0  0
   18.6936   -6.8047    2.9739 C   0  0  0  0  0  0  0  0  0  0  0  0
   19.9316   -7.0092    2.3556 C   0  0  0  0  0  0  0  0  0  0  0  0
   20.9489   -7.7118    3.0127 C   0  0  0  0  0  0  0  0  0  0  0  0
   20.7626   -8.2394    4.3009 C   0  0  0  0  0  0  0  0  0  0  0  0
   21.8381   -8.9909    4.9883 C   0  0  0  0  0  0  0  0  0  0  0  0
   21.9930   -8.9168    6.3777 C   0  0  0  0  0  0  0  0  0  0  0  0
   22.9765   -9.6597    7.0289 C   0  0  0  0  0  0  0  0  0  0  0  0
   23.8678  -10.4879    6.3195 C   0  0  0  0  0  0  0  0  0  0  0  0
   24.8742  -11.1775    7.1720 C   0  0  0  0  0  0  0  0  0  0  0  0
   24.9542  -10.9798    8.3797 O   0  0  0  0  0  0  0  0  0  0  0  0
   25.6585  -12.0413    6.4834 O   0  0  0  0  0  0  0  0  0  0  0  0
   26.6068  -12.7021    7.3290 C   0  0  0  0  0  0  0  0  0  0  0  0
   23.7883  -10.5316    4.9151 C   0  0  0  0  0  0  0  0  0  0  0  0
   24.7070  -11.2693    4.1117 N   0  0  0  0  0  0  0  0  0  0  0  0
   25.1701  -10.8076    2.8829 C   0  0  0  0  0  0  0  0  0  0  0  0
   24.8503   -9.7302    2.3766 O   0  0  0  0  0  0  0  0  0  0  0  0
   26.2114  -11.6256    2.1798 C   0  0  0  0  0  0  0  0  0  0  0  0
   27.0805  -10.9556    1.3270 C   0  0  0  0  0  0  0  0  0  0  0  0
   28.0201  -11.6900    0.6199 C   0  0  0  0  0  0  0  0  0  0  0  0
   28.0637  -13.0747    0.7722 C   0  0  0  0  0  0  0  0  0  0  0  0
   29.0108  -13.8368    0.0666 C   0  0  0  0  0  0  0  0  0  0  0  0
   29.0605  -15.2163    0.2247 C   0  0  0  0  0  0  0  0  0  0  0  0
   28.1460  -15.8371    1.0676 C   0  0  0  0  0  0  0  0  0  0  0  0
   27.1948  -15.0723    1.7615 C   0  0  0  0  0  0  0  0  0  0  0  0
   27.1371  -13.6855    1.6543 C   0  0  0  0  0  0  0  0  0  0  0  0
   26.2320  -12.9735    2.3711 N   0  0  0  0  0  0  0  0  0  0  0  0
   22.7513   -9.8055    4.2886 C   0  0  0  0  0  0  0  0  0  0  0  0
   19.5104   -8.0196    4.9089 C   0  0  0  0  0  0  0  0  0  0  0  0
   18.4939   -7.3073    4.2618 C   0  0  0  0  0  0  0  0  0  0  0  0
   15.2979   -5.9646    1.5469 C   0  0  0  0  0  0  0  0  0  0  0  0
    1.0899   -1.4186    6.4811 H   0  0  0  0  0  0  0  0  0  0  0  0
    0.9279   -3.0655    5.8329 H   0  0  0  0  0  0  0  0  0  0  0  0
    0.9664   -1.6552    4.7241 H   0  0  0  0  0  0  0  0  0  0  0  0
    2.8333   -2.6245    3.5723 H   0  0  0  0  0  0  0  0  0  0  0  0
    2.7967   -4.0174    4.6653 H   0  0  0  0  0  0  0  0  0  0  0  0
    5.1029   -3.4581    5.4566 H   0  0  0  0  0  0  0  0  0  0  0  0
    5.1396   -2.0641    4.3621 H   0  0  0  0  0  0  0  0  0  0  0  0
    6.9543   -4.4242    4.2836 H   0  0  0  0  0  0  0  0  0  0  0  0
    6.9883   -3.0319    3.1884 H   0  0  0  0  0  0  0  0  0  0  0  0
    6.4908   -4.5399    1.2551 H   0  0  0  0  0  0  0  0  0  0  0  0
    6.4614   -5.9341    2.3499 H   0  0  0  0  0  0  0  0  0  0  0  0
    8.3246   -5.4961    0.0659 H   0  0  0  0  0  0  0  0  0  0  0  0
    8.3190   -6.8984    1.1548 H   0  0  0  0  0  0  0  0  0  0  0  0
   10.5844   -6.3394    1.9342 H   0  0  0  0  0  0  0  0  0  0  0  0
   10.5996   -4.8852    0.8961 H   0  0  0  0  0  0  0  0  0  0  0  0
   12.6336   -5.5664    1.3841 H   0  0  0  0  0  0  0  0  0  0  0  0
   14.2286   -8.9132   -1.8959 H   0  0  0  0  0  0  0  0  0  0  0  0
   10.0111   -9.1587   -2.8708 H   0  0  0  0  0  0  0  0  0  0  0  0
   10.0516   -7.4821   -2.3376 H   0  0  0  0  0  0  0  0  0  0  0  0
    9.9461   -8.8433   -1.1388 H   0  0  0  0  0  0  0  0  0  0  0  0
   16.8315   -7.2327   -0.6848 H   0  0  0  0  0  0  0  0  0  0  0  0
   16.3793   -8.9496   -0.6676 H   0  0  0  0  0  0  0  0  0  0  0  0
   17.5547   -8.5037    1.4193 H   0  0  0  0  0  0  0  0  0  0  0  0
   15.8871   -8.8393    1.7612 H   0  0  0  0  0  0  0  0  0  0  0  0
   17.3858   -5.1584    2.8294 H   0  0  0  0  0  0  0  0  0  0  0  0
   17.9571   -5.7285    1.2649 H   0  0  0  0  0  0  0  0  0  0  0  0
   20.1144   -6.6364    1.3524 H   0  0  0  0  0  0  0  0  0  0  0  0
   21.8977   -7.8347    2.4960 H   0  0  0  0  0  0  0  0  0  0  0  0
   21.3536   -8.2710    6.9743 H   0  0  0  0  0  0  0  0  0  0  0  0
   23.0496   -9.5674    8.1124 H   0  0  0  0  0  0  0  0  0  0  0  0
   27.2536  -13.3202    6.7029 H   0  0  0  0  0  0  0  0  0  0  0  0
   26.0871  -13.3479    8.0442 H   0  0  0  0  0  0  0  0  0  0  0  0
   27.2311  -11.9720    7.8567 H   0  0  0  0  0  0  0  0  0  0  0  0
   25.2650  -11.9920    4.5638 H   0  0  0  0  0  0  0  0  0  0  0  0
   27.0299   -9.8764    1.2152 H   0  0  0  0  0  0  0  0  0  0  0  0
   28.7063  -11.1758   -0.0484 H   0  0  0  0  0  0  0  0  0  0  0  0
   29.7220  -13.3565   -0.6043 H   0  0  0  0  0  0  0  0  0  0  0  0
   29.8064  -15.8017   -0.3066 H   0  0  0  0  0  0  0  0  0  0  0  0
   28.1720  -16.9169    1.1918 H   0  0  0  0  0  0  0  0  0  0  0  0
   26.4810  -15.5815    2.4052 H   0  0  0  0  0  0  0  0  0  0  0  0
   22.6318   -9.8994    3.2062 H   0  0  0  0  0  0  0  0  0  0  0  0
   19.2975   -8.4166    5.8986 H   0  0  0  0  0  0  0  0  0  0  0  0
   17.5365   -7.1663    4.7593 H   0  0  0  0  0  0  0  0  0  0  0  0
   15.7242   -5.1424    0.9539 H   0  0  0  0  0  0  0  0  0  0  0  0
   14.7799   -5.5052    2.3980 H   0  0  0  0  0  0  0  0  0  0  0  0
  1  2  1  0  0  0  0
  1 54  1  0  0  0  0
  1 55  1  0  0  0  0
  1 56  1  0  0  0  0
  2  3  1  0  0  0  0
  3  4  1  0  0  0  0
  3 57  1  0  0  0  0
  3 58  1  0  0  0  0
  4  5  1  0  0  0  0
  4 59  1  0  0  0  0
  4 60  1  0  0  0  0
  5  6  1  0  0  0  0
  6  7  1  0  0  0  0
  6 61  1  0  0  0  0
  6 62  1  0  0  0  0
  7  8  1  0  0  0  0
  7 63  1  0  0  0  0
  7 64  1  0  0  0  0
  8  9  1  0  0  0  0
  9 10  1  0  0  0  0
  9 65  1  0  0  0  0
  9 66  1  0  0  0  0
 10 11  1  0  0  0  0
 10 67  1  0  0  0  0
 10 68  1  0  0  0  0
 11 12  1  0  0  0  0
 12 13  1  0  0  0  0
 12 17  2  0  0  0  0
 13 14  2  0  0  0  0
 13 69  1  0  0  0  0
 14 15  1  0  0  0  0
 14 53  1  0  0  0  0
 15 16  2  0  0  0  0
 15 20  1  0  0  0  0
 16 17  1  0  0  0  0
 16 70  1  0  0  0  0
 17 18  1  0  0  0  0
 18 19  1  0  0  0  0
 19 71  1  0  0  0  0
 19 72  1  0  0  0  0
 19 73  1  0  0  0  0
 20 21  1  0  0  0  0
 20 74  1  0  0  0  0
 20 75  1  0  0  0  0
 21 22  1  0  0  0  0
 21 76  1  0  0  0  0
 21 77  1  0  0  0  0
 22 23  1  0  0  0  0
 22 53  1  0  0  0  0
 23 24  1  0  0  0  0
 23 78  1  0  0  0  0
 23 79  1  0  0  0  0
 24 25  1  0  0  0  0
 24 52  2  0  0  0  0
 25 26  2  0  0  0  0
 25 80  1  0  0  0  0
 26 27  1  0  0  0  0
 26 81  1  0  0  0  0
 27 28  1  0  0  0  0
 27 51  2  0  0  0  0
 28 29  1  0  0  0  0
 28 50  2  0  0  0  0
 29 30  2  0  0  0  0
 29 82  1  0  0  0  0
 30 31  1  0  0  0  0
 30 83  1  0  0  0  0
 31 32  1  0  0  0  0
 31 36  2  0  0  0  0
 32 33  2  0  0  0  0
 32 34  1  0  0  0  0
 34 35  1  0  0  0  0
 35 84  1  0  0  0  0
 35 85  1  0  0  0  0
 35 86  1  0  0  0  0
 36 37  1  0  0  0  0
 36 50  1  0  0  0  0
 37 38  1  0  0  0  0
 37 87  1  0  0  0  0
 38 39  2  0  0  0  0
 38 40  1  0  0  0  0
 40 41  1  0  0  0  0
 40 49  2  0  0  0  0
 41 42  2  0  0  0  0
 41 88  1  0  0  0  0
 42 43  1  0  0  0  0
 42 89  1  0  0  0  0
 43 44  1  0  0  0  0
 43 48  2  0  0  0  0
 44 45  2  0  0  0  0
 44 90  1  0  0  0  0
 45 46  1  0  0  0  0
 45 91  1  0  0  0  0
 46 47  2  0  0  0  0
 46 92  1  0  0  0  0
 47 48  1  0  0  0  0
 47 93  1  0  0  0  0
 48 49  1  0  0  0  0
 50 94  1  0  0  0  0
 51 52  1  0  0  0  0
 51 95  1  0  0  0  0
 52 96  1  0  0  0  0
 53 97  1  0  0  0  0
 53 98  1  0  0  0  0
M  END
>  <Energy>
248.934

$$$$