157
 OpenBabel03292022013D

 55 58  0  0  1  0  0  0  0  0999 V2000
    1.3738   -0.2842   -0.9928 C   0  0  0  0  0  0  0  0  0  0  0  0
    2.5540   -1.1998   -1.2889 C   0  0  0  0  0  0  0  0  0  0  0  0
    3.8873   -0.5892   -0.8652 C   0  0  2  0  0  0  0  0  0  0  0  0
    4.4884    0.5685   -1.8630 C   0  0  0  0  0  0  0  0  0  0  0  0
    5.9121    0.4965   -2.4239 N   0  0  0  0  0  0  0  0  0  0  0  0
    5.9381    0.4441   -3.8994 C   0  0  0  0  0  0  0  0  0  0  0  0
    6.7327   -0.6329   -1.8599 C   0  0  1  0  0  0  0  0  0  0  0  0
    7.3405   -0.0505   -0.4964 C   0  0  0  0  0  0  0  0  0  0  0  0
    7.5350   -0.8436    0.8106 C   0  0  0  0  0  0  0  0  0  0  0  0
    7.2829   -2.1762    1.1267 C   0  0  0  0  0  0  0  0  0  0  0  0
    7.7567   -2.3928    2.3931 N   0  0  0  0  0  0  0  0  0  0  0  0
    7.8629   -1.2024    3.0766 C   0  0  0  0  0  0  0  0  0  0  0  0
    7.9960   -0.9460    4.4397 C   0  0  0  0  0  0  0  0  0  0  0  0
    7.9572    0.3873    4.8547 C   0  0  0  0  0  0  0  0  0  0  0  0
    7.8308    1.4136    3.9236 C   0  0  0  0  0  0  0  0  0  0  0  0
    7.7443    1.1367    2.5504 C   0  0  0  0  0  0  0  0  0  0  0  0
    7.7430   -0.2049    2.0992 C   0  0  0  0  0  0  0  0  0  0  0  0
    6.5675   -3.2199    0.4192 C   0  0  0  0  0  0  0  0  0  0  0  0
    7.3095   -4.2119    0.0235 N   0  0  0  0  0  0  0  0  0  0  0  0
    6.7895   -5.2438   -0.6609 N   0  0  0  0  0  0  0  0  0  0  0  0
    5.0368   -2.9602    0.1978 C   0  0  0  0  0  0  0  0  0  0  0  0
    4.9523   -1.6724   -0.6247 C   0  0  1  0  0  0  0  0  0  0  0  0
    5.7382   -1.7846   -1.9088 C   0  0  2  0  0  0  0  0  0  0  0  0
    5.9670   -3.1072   -2.6144 C   0  0  0  0  0  0  0  0  0  0  0  0
    5.1881   -4.0527   -2.4946 O   0  0  0  0  0  0  0  0  0  0  0  0
    6.9044   -3.0359   -3.5914 O   0  0  0  0  0  0  0  0  0  0  0  0
    6.7851   -4.0864   -4.5598 C   0  0  0  0  0  0  0  0  0  0  0  0
    0.4352   -0.7957   -1.2287 H   0  0  0  0  0  0  0  0  0  0  0  0
    1.4260    0.6351   -1.5809 H   0  0  0  0  0  0  0  0  0  0  0  0
    1.3414   -0.0148    0.0689 H   0  0  0  0  0  0  0  0  0  0  0  0
    2.5643   -1.4681   -2.3489 H   0  0  0  0  0  0  0  0  0  0  0  0
    2.3920   -2.1282   -0.7236 H   0  0  0  0  0  0  0  0  0  0  0  0
    3.7131   -0.0777    0.0953 H   0  0  0  0  0  0  0  0  0  0  0  0
    4.4737    1.5025   -1.2862 H   0  0  0  0  0  0  0  0  0  0  0  0
    3.7788    0.7316   -2.6845 H   0  0  0  0  0  0  0  0  0  0  0  0
    5.8237    1.4470   -4.3191 H   0  0  0  0  0  0  0  0  0  0  0  0
    5.1596   -0.1995   -4.3235 H   0  0  0  0  0  0  0  0  0  0  0  0
    6.8980    0.0655   -4.2767 H   0  0  0  0  0  0  0  0  0  0  0  0
    7.6078   -0.8510   -2.4868 H   0  0  0  0  0  0  0  0  0  0  0  0
    6.7214    0.8112   -0.1978 H   0  0  0  0  0  0  0  0  0  0  0  0
    8.3124    0.4025   -0.7425 H   0  0  0  0  0  0  0  0  0  0  0  0
    7.7659   -3.2994    2.8458 H   0  0  0  0  0  0  0  0  0  0  0  0
    8.0709   -1.7514    5.1601 H   0  0  0  0  0  0  0  0  0  0  0  0
    8.0213    0.6178    5.9167 H   0  0  0  0  0  0  0  0  0  0  0  0
    7.7767    2.4429    4.2707 H   0  0  0  0  0  0  0  0  0  0  0  0
    7.6087    1.9538    1.8490 H   0  0  0  0  0  0  0  0  0  0  0  0
    7.4793   -5.5804   -1.3402 H   0  0  0  0  0  0  0  0  0  0  0  0
    5.9482   -5.0330   -1.2113 H   0  0  0  0  0  0  0  0  0  0  0  0
    4.5802   -2.8089    1.1827 H   0  0  0  0  0  0  0  0  0  0  0  0
    4.5255   -3.8066   -0.2578 H   0  0  0  0  0  0  0  0  0  0  0  0
    5.4454   -1.0392    0.0956 H   0  0  0  0  0  0  0  0  0  0  0  0
    4.9910   -1.5374   -2.6838 H   0  0  0  0  0  0  0  0  0  0  0  0
    7.7287   -4.1699   -5.1035 H   0  0  0  0  0  0  0  0  0  0  0  0
    5.9947   -3.8305   -5.2723 H   0  0  0  0  0  0  0  0  0  0  0  0
    6.5708   -5.0594   -4.1028 H   0  0  0  0  0  0  0  0  0  0  0  0
  1  2  1  0  0  0  0
  1 28  1  0  0  0  0
  1 29  1  0  0  0  0
  1 30  1  0  0  0  0
  2 31  1  0  0  0  0
  2 32  1  0  0  0  0
  3  4  1  0  0  0  0
  3 22  1  0  0  0  0
  3  2  1  0  0  0  0
  3 33  1  1  0  0  0
  4  5  1  0  0  0  0
  4 34  1  0  0  0  0
  4 35  1  0  0  0  0
  5  6  1  0  0  0  0
  5  7  1  0  0  0  0
  6 36  1  0  0  0  0
  6 37  1  0  0  0  0
  6 38  1  0  0  0  0
  7  8  1  0  0  0  0
  7 23  1  0  0  0  0
  7 39  1  6  0  0  0
  8  9  1  0  0  0  0
  8 40  1  0  0  0  0
  8 41  1  0  0  0  0
  9 10  2  0  0  0  0
  9 17  1  0  0  0  0
 10 11  1  0  0  0  0
 10 18  1  0  0  0  0
 11 12  1  0  0  0  0
 11 42  1  0  0  0  0
 12 13  1  0  0  0  0
 12 17  2  0  0  0  0
 13 14  2  0  0  0  0
 13 43  1  0  0  0  0
 14 15  1  0  0  0  0
 14 44  1  0  0  0  0
 15 16  2  0  0  0  0
 15 45  1  0  0  0  0
 16 17  1  0  0  0  0
 16 46  1  0  0  0  0
 18 19  2  0  0  0  0
 18 21  1  0  0  0  0
 19 20  1  0  0  0  0
 20 47  1  0  0  0  0
 20 48  1  0  0  0  0
 21 22  1  0  0  0  0
 21 49  1  0  0  0  0
 21 50  1  0  0  0  0
 22 23  1  0  0  0  0
 22 51  1  1  0  0  0
 23 24  1  0  0  0  0
 23 52  1  6  0  0  0
 24 25  2  0  0  0  0
 24 26  1  0  0  0  0
 26 27  1  0  0  0  0
 27 53  1  0  0  0  0
 27 54  1  0  0  0  0
 27 55  1  0  0  0  0
M  END
>  <Energy>
196.553

$$$$