134130119
  -OEChem-03242010103D

 49 52  0     0  0  0  0  0  0999 V2000
    5.9897   -1.0299   -0.9305 O   0  0  0  0  0  0  0  0  0  0  0  0
    6.8021    1.5182   -0.1746 O   0  0  0  0  0  0  0  0  0  0  0  0
   -5.2907   -0.7981   -0.3911 O   0  0  0  0  0  0  0  0  0  0  0  0
    1.5162   -0.0181    0.4623 N   0  0  0  0  0  0  0  0  0  0  0  0
   -2.9792   -0.5469   -0.0461 N   0  0  0  0  0  0  0  0  0  0  0  0
    1.0790   -1.2360    0.1122 N   0  0  0  0  0  0  0  0  0  0  0  0
   -0.5272    0.1091    0.9715 N   0  0  0  0  0  0  0  0  0  0  0  0
    0.5984    0.8126    0.9759 N   0  0  0  0  0  0  0  0  0  0  0  0
   -1.1801   -2.1562    0.2828 C   0  0  0  0  0  0  0  0  0  0  0  0
   -2.5232   -1.8662    0.0428 C   0  0  0  0  0  0  0  0  0  0  0  0
    2.8427    0.3629    0.3019 C   0  0  0  0  0  0  0  0  0  0  0  0
   -0.2067   -1.1090    0.4501 C   0  0  0  0  0  0  0  0  0  0  0  0
   -0.7569   -3.4827    0.3649 C   0  0  0  0  0  0  0  0  0  0  0  0
   -3.4431   -2.9028   -0.1151 C   0  0  0  0  0  0  0  0  0  0  0  0
    3.7662   -0.5318   -0.2389 C   0  0  0  0  0  0  0  0  0  0  0  0
    5.0973   -0.1477   -0.4002 C   0  0  0  0  0  0  0  0  0  0  0  0
    3.2506    1.6418    0.6812 C   0  0  0  0  0  0  0  0  0  0  0  0
    5.5051    1.1312   -0.0210 C   0  0  0  0  0  0  0  0  0  0  0  0
   -1.6768   -4.5193    0.2070 C   0  0  0  0  0  0  0  0  0  0  0  0
   -3.0199   -4.2295   -0.0329 C   0  0  0  0  0  0  0  0  0  0  0  0
    4.5817    2.0260    0.5198 C   0  0  0  0  0  0  0  0  0  0  0  0
   -4.2902   -0.1030   -0.2507 C   0  0  0  0  0  0  0  0  0  0  0  0
   -4.4645    1.3732   -0.2697 C   0  0  0  0  0  0  0  0  0  0  0  0
   -5.6868    1.9362    0.0969 C   0  0  0  0  0  0  0  0  0  0  0  0
   -3.4048    2.1951   -0.6529 C   0  0  0  0  0  0  0  0  0  0  0  0
   -5.8495    3.3216    0.0804 C   0  0  0  0  0  0  0  0  0  0  0  0
   -3.5675    3.5803   -0.6694 C   0  0  0  0  0  0  0  0  0  0  0  0
   -4.7898    4.1436   -0.3028 C   0  0  0  0  0  0  0  0  0  0  0  0
    5.4917   -2.3167   -1.2920 C   0  0  0  0  0  0  0  0  0  0  0  0
    7.1363    2.8420    0.2381 C   0  0  0  0  0  0  0  0  0  0  0  0
    0.2816   -3.7410    0.5581 H   0  0  0  0  0  0  0  0  0  0  0  0
   -4.4971   -2.7735   -0.3097 H   0  0  0  0  0  0  0  0  0  0  0  0
    3.4174   -1.5176   -0.5237 H   0  0  0  0  0  0  0  0  0  0  0  0
   -2.2675    0.1586    0.1067 H   0  0  0  0  0  0  0  0  0  0  0  0
    2.5610    2.3670    1.1059 H   0  0  0  0  0  0  0  0  0  0  0  0
   -1.3479   -5.5524    0.2723 H   0  0  0  0  0  0  0  0  0  0  0  0
    4.8269    3.0341    0.8360 H   0  0  0  0  0  0  0  0  0  0  0  0
   -3.7347   -5.0380   -0.1568 H   0  0  0  0  0  0  0  0  0  0  0  0
   -6.5235    1.3141    0.4037 H   0  0  0  0  0  0  0  0  0  0  0  0
   -2.4484    1.8026   -0.9844 H   0  0  0  0  0  0  0  0  0  0  0  0
   -6.8009    3.7604    0.3665 H   0  0  0  0  0  0  0  0  0  0  0  0
   -2.7455    4.2206   -0.9762 H   0  0  0  0  0  0  0  0  0  0  0  0
   -4.9169    5.2221   -0.3175 H   0  0  0  0  0  0  0  0  0  0  0  0
    6.3361   -2.8858   -1.6950 H   0  0  0  0  0  0  0  0  0  0  0  0
    4.7451   -2.2520   -2.0910 H   0  0  0  0  0  0  0  0  0  0  0  0
    5.1266   -2.8693   -0.4195 H   0  0  0  0  0  0  0  0  0  0  0  0
    8.2053    2.9795    0.0449 H   0  0  0  0  0  0  0  0  0  0  0  0
    6.9880    2.9787    1.3148 H   0  0  0  0  0  0  0  0  0  0  0  0
    6.6069    3.5955   -0.3550 H   0  0  0  0  0  0  0  0  0  0  0  0
  1 16  1  0  0  0  0
  1 29  1  0  0  0  0
  2 18  1  0  0  0  0
  2 30  1  0  0  0  0
  3 22  2  0  0  0  0
  4  6  1  0  0  0  0
  4  8  1  0  0  0  0
  4 11  1  0  0  0  0
  5 10  1  0  0  0  0
  5 22  1  0  0  0  0
  5 34  1  0  0  0  0
  6 12  2  0  0  0  0
  7  8  2  0  0  0  0
  7 12  1  0  0  0  0
  9 10  1  0  0  0  0
  9 12  1  0  0  0  0
  9 13  2  0  0  0  0
 10 14  2  0  0  0  0
 11 15  2  0  0  0  0
 11 17  1  0  0  0  0
 13 19  1  0  0  0  0
 13 31  1  0  0  0  0
 14 20  1  0  0  0  0
 14 32  1  0  0  0  0
 15 16  1  0  0  0  0
 15 33  1  0  0  0  0
 16 18  2  0  0  0  0
 17 21  2  0  0  0  0
 17 35  1  0  0  0  0
 18 21  1  0  0  0  0
 19 20  2  0  0  0  0
 19 36  1  0  0  0  0
 20 38  1  0  0  0  0
 21 37  1  0  0  0  0
 22 23  1  0  0  0  0
 23 24  2  0  0  0  0
 23 25  1  0  0  0  0
 24 26  1  0  0  0  0
 24 39  1  0  0  0  0
 25 27  2  0  0  0  0
 25 40  1  0  0  0  0
 26 28  2  0  0  0  0
 26 41  1  0  0  0  0
 27 28  1  0  0  0  0
 27 42  1  0  0  0  0
 28 43  1  0  0  0  0
 29 44  1  0  0  0  0
 29 45  1  0  0  0  0
 29 46  1  0  0  0  0
 30 47  1  0  0  0  0
 30 48  1  0  0  0  0
 30 49  1  0  0  0  0
M  END
> <PUBCHEM_COMPOUND_CID>
134130119

> <PUBCHEM_CONFORMER_RMSD>
0.8

> <PUBCHEM_CONFORMER_DIVERSEORDER>
2
50
16
30
69
5
67
21
34
20
54
23
11
47
29
61
60
55
15
14
51
19
38
12
10
35
58
9
68
70
7
63
6
53
37
57
26
31
17
62
24
41
1
28
56
52
45
18
36
33
27
59
22
48
40
46
32
44
3
65
43
13
39
64
25
66
42
49
8
4

> <PUBCHEM_MMFF94_PARTIAL_CHARGES>
43
1 -0.36
10 0.12
11 -0.02
12 0.46
13 -0.15
14 -0.15
15 -0.15
16 0.08
17 -0.15
18 0.08
19 -0.15
2 -0.36
20 -0.15
21 -0.15
22 0.54
23 0.09
24 -0.15
25 -0.15
26 -0.15
27 -0.15
28 -0.15
29 0.28
3 -0.57
30 0.28
31 0.15
32 0.15
33 0.15
34 0.37
35 0.15
36 0.15
37 0.15
38 0.15
39 0.15
4 0.86
40 0.15
41 0.15
42 0.15
43 0.15
5 -0.55
6 -0.71
7 -0.23
8 -0.42
9 0.05

> <PUBCHEM_EFFECTIVE_ROTOR_COUNT>
7

> <PUBCHEM_PHARMACOPHORE_FEATURES>
9
1 1 acceptor
1 2 acceptor
1 3 acceptor
1 5 donor
3 6 7 12 cation
5 4 6 7 8 12 rings
6 11 15 16 17 18 21 rings
6 23 24 25 26 27 28 rings
6 9 10 13 14 19 20 rings

> <PUBCHEM_HEAVY_ATOM_COUNT>
30

> <PUBCHEM_ATOM_DEF_STEREO_COUNT>
0

> <PUBCHEM_ATOM_UDEF_STEREO_COUNT>
0

> <PUBCHEM_BOND_DEF_STEREO_COUNT>
0

> <PUBCHEM_BOND_UDEF_STEREO_COUNT>
0

> <PUBCHEM_ISOTOPIC_ATOM_COUNT>
0

> <PUBCHEM_COMPONENT_COUNT>
1

> <PUBCHEM_CACTVS_TAUTO_COUNT>
6

> <PUBCHEM_CONFORMER_ID>
07FEA9C700000002

> <PUBCHEM_MMFF94_ENERGY>
111.1217

> <PUBCHEM_FEATURE_SELFOVERLAP>
45.676

> <PUBCHEM_SHAPE_FINGERPRINT>
100830 39 18337106864715495096
10165383 225 18343589538850811297
10411042 1 17760928837783973795
10670039 82 18408315575852920701
10675989 125 18052542062587894890
10835480 77 18342737472873295600
10864689 126 18192427463839953764
11014199 57 17975695309880269609
12107183 9 18189883233093836130
12293681 160 17916864613022896313
13383665 225 18115040714069336468
138480 1 17185870598460292987
13944108 23 17546444475643262629
14068700 686 17981321506717007904
14251764 75 18125726678305893009
14347329 18 18410847742330842721
14508225 48 17836352019797776799
14713325 29 18334580178874735387
14790565 3 18193555571564636171
15183329 4 18339643335050872614
15198563 99 18267857475727048159
15230672 131 18263646165540729886
15419008 42 18130792205473101974
15721738 15 17984439438146892838
15876981 60 18044938119654242487
15927050 60 18340202986892378383
16067689 134 17334791781472579472
16087824 20 18338230566944715751
16126227 98 18411985754483549897
19301676 85 17766013705200382414
19611394 137 17968958478221333801
19958102 18 18409444756782312566
20101258 96 17975136753821239747
21033648 144 18272658986495236858
21033648 29 18412255134162409889
21033650 10 18115889536502269918
21133410 127 17681272161929811533
21279426 13 18270967847417456206
23559900 14 18200593726278367474
23569943 247 16155919831582185154
25019877 29 18272941548631989431
3418910 222 17536042395459253588
3610482 184 18041857202084216724
4073 2 18335703909896595506
5283173 99 18412262869767112066
6327066 14 18334850581441379669
636775 72 18267298919298842960
6376802 90 18338520837075243694
6700243 42 17621921932683818166
7288768 16 17967815999434792475
7808743 9 18408879638192289817

> <PUBCHEM_SHAPE_MULTIPOLES>
574.87
17.2
5.83
0.83
19.46
2.27
0.05
-15.48
2.94
-8.06
0.24
0.47
0.02
1.8

> <PUBCHEM_SHAPE_SELFOVERLAP>
1264.515

> <PUBCHEM_SHAPE_VOLUME>
310.6

> <PUBCHEM_COORDINATE_TYPE>
2
5
10

$$$$