132576657
  -OEChem-03242010103D

 73 77  0     1  0  0  0  0  0999 V2000
    7.6722    2.0176    1.1511 F   0  0  0  0  0  0  0  0  0  0  0  0
    7.5806    1.1174   -0.8381 F   0  0  0  0  0  0  0  0  0  0  0  0
    6.3530    0.3087    0.8123 F   0  0  0  0  0  0  0  0  0  0  0  0
   -3.2452    3.9438   -1.0484 O   0  0  0  0  0  0  0  0  0  0  0  0
   -5.6753    2.8250   -0.3003 O   0  0  0  0  0  0  0  0  0  0  0  0
   -0.5380   -3.5995   -1.9992 O   0  0  0  0  0  0  0  0  0  0  0  0
    1.3449   -1.8032   -2.3549 O   0  0  0  0  0  0  0  0  0  0  0  0
    5.8065    2.3440   -0.0766 O   0  0  0  0  0  0  0  0  0  0  0  0
   -0.9494   -0.3821    2.6198 N   0  0  1  0  0  0  0  0  0  0  0  0
    0.3839   -2.9580    2.1906 N   0  0  0  0  0  0  0  0  0  0  0  0
    1.5230   -3.4324    1.6608 N   0  0  0  0  0  0  0  0  0  0  0  0
    1.2103   -4.0109    0.5065 N   0  0  0  0  0  0  0  0  0  0  0  0
    0.8111    0.2718   -1.3980 N   0  0  0  0  0  0  0  0  0  0  0  0
   -2.0954   -0.4131    3.5368 C   0  0  0  0  0  0  0  0  0  0  0  0
   -0.8361    0.9460    1.9914 C   0  0  0  0  0  0  0  0  0  0  0  0
   -3.3991   -0.2640    2.7460 C   0  0  0  0  0  0  0  0  0  0  0  0
   -2.1259    1.4225    1.3632 C   0  0  0  0  0  0  0  0  0  0  0  0
   -3.3576    0.8727    1.7582 C   0  0  0  0  0  0  0  0  0  0  0  0
    0.2877   -0.7197    3.3231 C   0  0  0  0  0  0  0  0  0  0  0  0
    0.3924   -2.2324    3.5126 C   0  0  0  0  0  0  0  0  0  0  0  0
   -2.1034    2.4643    0.4261 C   0  0  0  0  0  0  0  0  0  0  0  0
   -4.5441    1.3465    1.1838 C   0  0  0  0  0  0  0  0  0  0  0  0
   -3.2909    2.9356   -0.1332 C   0  0  0  0  0  0  0  0  0  0  0  0
   -4.5096    2.3758    0.2434 C   0  0  0  0  0  0  0  0  0  0  0  0
   -0.6873   -3.2187    1.3927 C   0  0  0  0  0  0  0  0  0  0  0  0
   -0.1398   -3.8887    0.3276 C   0  0  0  0  0  0  0  0  0  0  0  0
   -0.8027   -4.4301   -0.8656 C   0  0  0  0  0  0  0  0  0  0  0  0
   -1.9576    4.4611   -1.3786 C   0  0  0  0  0  0  0  0  0  0  0  0
   -6.8788    2.1985    0.1393 C   0  0  0  0  0  0  0  0  0  0  0  0
   -1.3847   -2.5441   -2.1923 C   0  0  0  0  0  0  0  0  0  0  0  0
   -0.9056   -1.2342   -2.2015 C   0  0  0  0  0  0  0  0  0  0  0  0
   -2.7441   -2.7908   -2.3841 C   0  0  0  0  0  0  0  0  0  0  0  0
   -1.7857   -0.1710   -2.4026 C   0  0  0  0  0  0  0  0  0  0  0  0
    0.5100   -0.9548   -2.0047 C   0  0  0  0  0  0  0  0  0  0  0  0
   -3.6244   -1.7275   -2.5852 C   0  0  0  0  0  0  0  0  0  0  0  0
   -3.1451   -0.4176   -2.5945 C   0  0  0  0  0  0  0  0  0  0  0  0
    2.0820    0.7989   -1.0611 C   0  0  0  0  0  0  0  0  0  0  0  0
    3.2364    0.0652   -1.3351 C   0  0  0  0  0  0  0  0  0  0  0  0
    2.1793    2.0519   -0.4561 C   0  0  0  0  0  0  0  0  0  0  0  0
    4.4879    0.5845   -1.0038 C   0  0  0  0  0  0  0  0  0  0  0  0
    3.4306    2.5712   -0.1248 C   0  0  0  0  0  0  0  0  0  0  0  0
    4.5850    1.8376   -0.3986 C   0  0  0  0  0  0  0  0  0  0  0  0
    6.8489    1.4324    0.2518 C   0  0  0  0  0  0  0  0  0  0  0  0
   -2.0161    0.3886    4.2840 H   0  0  0  0  0  0  0  0  0  0  0  0
   -2.1539   -1.3574    4.0882 H   0  0  0  0  0  0  0  0  0  0  0  0
   -0.0690    0.8929    1.2143 H   0  0  0  0  0  0  0  0  0  0  0  0
   -0.5219    1.6977    2.7280 H   0  0  0  0  0  0  0  0  0  0  0  0
   -4.2236   -0.1120    3.4528 H   0  0  0  0  0  0  0  0  0  0  0  0
   -3.5997   -1.1895    2.1914 H   0  0  0  0  0  0  0  0  0  0  0  0
    1.1542   -0.4052    2.7258 H   0  0  0  0  0  0  0  0  0  0  0  0
    0.3639   -0.2051    4.2888 H   0  0  0  0  0  0  0  0  0  0  0  0
   -0.4237   -2.6705    4.0948 H   0  0  0  0  0  0  0  0  0  0  0  0
    1.3403   -2.5007    3.9926 H   0  0  0  0  0  0  0  0  0  0  0  0
   -1.1276    2.8667    0.1776 H   0  0  0  0  0  0  0  0  0  0  0  0
   -5.4611    0.8681    1.5121 H   0  0  0  0  0  0  0  0  0  0  0  0
   -1.6999   -2.9346    1.6394 H   0  0  0  0  0  0  0  0  0  0  0  0
   -0.3856   -5.4176   -1.0936 H   0  0  0  0  0  0  0  0  0  0  0  0
   -1.8739   -4.5839   -0.6931 H   0  0  0  0  0  0  0  0  0  0  0  0
   -2.1090    5.2518   -2.1208 H   0  0  0  0  0  0  0  0  0  0  0  0
   -1.3254    3.7006   -1.8500 H   0  0  0  0  0  0  0  0  0  0  0  0
   -1.4752    4.9270   -0.5126 H   0  0  0  0  0  0  0  0  0  0  0  0
   -7.0527    2.3624    1.2083 H   0  0  0  0  0  0  0  0  0  0  0  0
   -6.9033    1.1371   -0.1305 H   0  0  0  0  0  0  0  0  0  0  0  0
   -7.7054    2.6800   -0.3937 H   0  0  0  0  0  0  0  0  0  0  0  0
   -3.1341   -3.8047   -2.4031 H   0  0  0  0  0  0  0  0  0  0  0  0
   -1.4543    0.8617   -2.4590 H   0  0  0  0  0  0  0  0  0  0  0  0
   -4.6819   -1.9196   -2.7412 H   0  0  0  0  0  0  0  0  0  0  0  0
   -3.8294    0.4094   -2.7602 H   0  0  0  0  0  0  0  0  0  0  0  0
    0.0402    0.8716   -1.1181 H   0  0  0  0  0  0  0  0  0  0  0  0
    3.2423   -0.9063   -1.8083 H   0  0  0  0  0  0  0  0  0  0  0  0
    1.2901    2.6373   -0.2401 H   0  0  0  0  0  0  0  0  0  0  0  0
    5.3632   -0.0012   -1.2690 H   0  0  0  0  0  0  0  0  0  0  0  0
    3.5001    3.5481    0.3458 H   0  0  0  0  0  0  0  0  0  0  0  0
  1 43  1  0  0  0  0
  2 43  1  0  0  0  0
  3 43  1  0  0  0  0
  4 23  1  0  0  0  0
  4 28  1  0  0  0  0
  5 24  1  0  0  0  0
  5 29  1  0  0  0  0
  6 27  1  0  0  0  0
  6 30  1  0  0  0  0
  7 34  2  0  0  0  0
  8 42  1  0  0  0  0
  8 43  1  0  0  0  0
  9 14  1  0  0  0  0
  9 15  1  0  0  0  0
  9 19  1  0  0  0  0
 10 11  1  0  0  0  0
 10 20  1  0  0  0  0
 10 25  1  0  0  0  0
 11 12  2  0  0  0  0
 12 26  1  0  0  0  0
 13 34  1  0  0  0  0
 13 37  1  0  0  0  0
 13 69  1  0  0  0  0
 14 16  1  0  0  0  0
 14 44  1  0  0  0  0
 14 45  1  0  0  0  0
 15 17  1  0  0  0  0
 15 46  1  0  0  0  0
 15 47  1  0  0  0  0
 16 18  1  0  0  0  0
 16 48  1  0  0  0  0
 16 49  1  0  0  0  0
 17 18  1  0  0  0  0
 17 21  2  0  0  0  0
 18 22  2  0  0  0  0
 19 20  1  0  0  0  0
 19 50  1  0  0  0  0
 19 51  1  0  0  0  0
 20 52  1  0  0  0  0
 20 53  1  0  0  0  0
 21 23  1  0  0  0  0
 21 54  1  0  0  0  0
 22 24  1  0  0  0  0
 22 55  1  0  0  0  0
 23 24  2  0  0  0  0
 25 26  2  0  0  0  0
 25 56  1  0  0  0  0
 26 27  1  0  0  0  0
 27 57  1  0  0  0  0
 27 58  1  0  0  0  0
 28 59  1  0  0  0  0
 28 60  1  0  0  0  0
 28 61  1  0  0  0  0
 29 62  1  0  0  0  0
 29 63  1  0  0  0  0
 29 64  1  0  0  0  0
 30 31  1  0  0  0  0
 30 32  2  0  0  0  0
 31 33  2  0  0  0  0
 31 34  1  0  0  0  0
 32 35  1  0  0  0  0
 32 65  1  0  0  0  0
 33 36  1  0  0  0  0
 33 66  1  0  0  0  0
 35 36  2  0  0  0  0
 35 67  1  0  0  0  0
 36 68  1  0  0  0  0
 37 38  2  0  0  0  0
 37 39  1  0  0  0  0
 38 40  1  0  0  0  0
 38 70  1  0  0  0  0
 39 41  2  0  0  0  0
 39 71  1  0  0  0  0
 40 42  2  0  0  0  0
 40 72  1  0  0  0  0
 41 42  1  0  0  0  0
 41 73  1  0  0  0  0
M  END
> <PUBCHEM_COMPOUND_CID>
132576657

> <PUBCHEM_CONFORMER_RMSD>
1.2

> <PUBCHEM_CONFORMER_DIVERSEORDER>
35
145
139
179
212
72
56
3
211
220
221
98
215
188
71
187
146
197
209
24
101
131
2
104
57
182
193
99
115
140
185
165
17
97
7
92
36
207
15
62
190
155
199
163
96
38
150
173
105
169
9
100
130
45
206
168
157
46
44
200
213
28
181
89
60
127
119
167
109
176
4
110
90
33
151
156
48
160
208
11
13
30
108
84
177
66
147
32
129
217
135
5
55
198
164
174
18
210
124
49
166
106
175
23
103
27
126
12
102
95
1
43
194
54
203
114
120
132
34
65
19
118
77
22
63
218
191
159
183
14
216
41
8
201
204
143
6
184
121
214
26
16
154
189
58
79
195
20
125
47
148
137
68
80
73
133
172
144
138
122
170
42
113
152
180
61
51
178
161
116
21
82
117
76
69
202
67
39
40
94
219
128
70
186
64
88
162
158
142
123
81
141
25
192
29
112
75
53
111
37
149
74
196
10
83
153
205
31
85
78
86
52
50
171
136
107
134
93
59
91
87

> <PUBCHEM_MMFF94_PARTIAL_CHARGES>
55
1 -0.34
10 0.31
11 -0.42
12 -0.23
13 -0.55
14 0.27
15 0.41
16 0.14
17 -0.14
18 -0.14
19 0.27
2 -0.34
20 0.26
21 -0.15
22 -0.15
23 0.08
24 0.08
25 -0.3
26 0.05
27 0.46
28 0.28
29 0.28
3 -0.34
30 0.08
31 0.09
32 -0.15
33 -0.15
34 0.54
35 -0.15
36 -0.15
37 0.12
38 -0.15
39 -0.15
4 -0.36
40 -0.15
41 -0.15
42 0.08
43 1.3
5 -0.36
54 0.15
55 0.15
56 0.15
6 -0.36
65 0.15
66 0.15
67 0.15
68 0.15
69 0.37
7 -0.57
70 0.15
71 0.15
72 0.15
73 0.15
8 -0.36
9 -0.81

> <PUBCHEM_EFFECTIVE_ROTOR_COUNT>
13.8

> <PUBCHEM_PHARMACOPHORE_FEATURES>
12
1 13 donor
1 4 acceptor
1 5 acceptor
1 6 acceptor
1 7 acceptor
1 8 acceptor
1 9 cation
5 10 11 12 25 26 rings
6 17 18 21 22 23 24 rings
6 30 31 32 33 35 36 rings
6 37 38 39 40 41 42 rings
6 9 14 15 16 17 18 rings

> <PUBCHEM_HEAVY_ATOM_COUNT>
43

> <PUBCHEM_ATOM_DEF_STEREO_COUNT>
0

> <PUBCHEM_ATOM_UDEF_STEREO_COUNT>
0

> <PUBCHEM_BOND_DEF_STEREO_COUNT>
0

> <PUBCHEM_BOND_UDEF_STEREO_COUNT>
0

> <PUBCHEM_ISOTOPIC_ATOM_COUNT>
0

> <PUBCHEM_COMPONENT_COUNT>
1

> <PUBCHEM_CACTVS_TAUTO_COUNT>
9

> <PUBCHEM_CONFORMER_ID>
07E6F59100000023

> <PUBCHEM_MMFF94_ENERGY>
140.5067

> <PUBCHEM_FEATURE_SELFOVERLAP>
60.936

> <PUBCHEM_SHAPE_FINGERPRINT>
11582403 64 18337116657193203833
11763715 3 17122201491726386943
11991303 11 18340496655074916844
12156800 1 17631427086336615819
14068700 675 8646478627106111421
14400156 162 17386827475121939038
15274700 242 18261661658082810656
15513586 35 17480034415897310216
15781502 589 18048026373077057541
15975801 100 18341600487350277117
20587220 17 17825099316913776413
35225 105 17903957596105948719
4112364 45 18193281797654354153
469060 322 16413528945970320966
484985 159 17970628717408542082

> <PUBCHEM_SHAPE_MULTIPOLES>
808.85
12.23
5.73
3.73
20.59
2.83
-1.98
-15.86
0.13
-2.53
1.21
-2.6
2.93
-1.17

> <PUBCHEM_SHAPE_SELFOVERLAP>
1752.459

> <PUBCHEM_SHAPE_VOLUME>
444

> <PUBCHEM_COORDINATE_TYPE>
2
5
10

$$$$