2562583
  -OEChem-03242010103D

 38 41  0     0  0  0  0  0  0999 V2000
   -3.9026   -2.5093    2.2140 Br  0  0  0  0  0  0  0  0  0  0  0  0
   -1.5761    1.2755   -0.6402 N   0  0  0  0  0  0  0  0  0  0  0  0
    0.2650   -0.1672   -0.3850 N   0  0  0  0  0  0  0  0  0  0  0  0
    2.4330    0.6999    0.2107 N   0  0  0  0  0  0  0  0  0  0  0  0
    0.5819    2.2040   -0.0397 C   0  0  0  0  0  0  0  0  0  0  0  0
   -0.2016    1.0951   -0.3466 C   0  0  0  0  0  0  0  0  0  0  0  0
    1.9342    1.9482    0.2402 C   0  0  0  0  0  0  0  0  0  0  0  0
    1.5714   -0.2898   -0.1003 C   0  0  0  0  0  0  0  0  0  0  0  0
    0.0715    3.5133   -0.0060 C   0  0  0  0  0  0  0  0  0  0  0  0
    2.1128   -1.6234   -0.1297 C   0  0  0  0  0  0  0  0  0  0  0  0
    2.7500    3.0332    0.5516 C   0  0  0  0  0  0  0  0  0  0  0  0
   -2.6998    0.4543   -0.4560 C   0  0  0  0  0  0  0  0  0  0  0  0
    0.9091    4.5789    0.3082 C   0  0  0  0  0  0  0  0  0  0  0  0
    2.2499    4.3382    0.5872 C   0  0  0  0  0  0  0  0  0  0  0  0
    3.4529   -1.8328   -0.4704 C   0  0  0  0  0  0  0  0  0  0  0  0
    1.3027   -2.7198    0.1824 C   0  0  0  0  0  0  0  0  0  0  0  0
   -2.7395   -0.4599    0.6013 C   0  0  0  0  0  0  0  0  0  0  0  0
   -3.7871    0.5442   -1.3304 C   0  0  0  0  0  0  0  0  0  0  0  0
    3.9775   -3.1250   -0.4988 C   0  0  0  0  0  0  0  0  0  0  0  0
    1.8271   -4.0120    0.1542 C   0  0  0  0  0  0  0  0  0  0  0  0
   -3.8558   -1.2763    0.7823 C   0  0  0  0  0  0  0  0  0  0  0  0
   -4.9034   -0.2723   -1.1495 C   0  0  0  0  0  0  0  0  0  0  0  0
    3.1646   -4.2146   -0.1864 C   0  0  0  0  0  0  0  0  0  0  0  0
   -4.9378   -1.1825   -0.0931 C   0  0  0  0  0  0  0  0  0  0  0  0
   -1.7454    2.0503   -1.2756 H   0  0  0  0  0  0  0  0  0  0  0  0
   -0.9722    3.7345   -0.2108 H   0  0  0  0  0  0  0  0  0  0  0  0
    3.8031    2.8716    0.7741 H   0  0  0  0  0  0  0  0  0  0  0  0
    0.5185    5.5915    0.3372 H   0  0  0  0  0  0  0  0  0  0  0  0
    2.9106    5.1642    0.8337 H   0  0  0  0  0  0  0  0  0  0  0  0
    4.1107   -1.0060   -0.7286 H   0  0  0  0  0  0  0  0  0  0  0  0
    0.2588   -2.5953    0.4614 H   0  0  0  0  0  0  0  0  0  0  0  0
   -1.9060   -0.5309    1.2967 H   0  0  0  0  0  0  0  0  0  0  0  0
   -3.7741    1.2481   -2.1590 H   0  0  0  0  0  0  0  0  0  0  0  0
    5.0182   -3.2833   -0.7660 H   0  0  0  0  0  0  0  0  0  0  0  0
    1.1950   -4.8605    0.3995 H   0  0  0  0  0  0  0  0  0  0  0  0
   -5.7457   -0.1995   -1.8313 H   0  0  0  0  0  0  0  0  0  0  0  0
    3.5729   -5.2206   -0.2084 H   0  0  0  0  0  0  0  0  0  0  0  0
   -5.8152   -1.8114    0.0340 H   0  0  0  0  0  0  0  0  0  0  0  0
  1 21  1  0  0  0  0
  2  6  1  0  0  0  0
  2 12  1  0  0  0  0
  2 25  1  0  0  0  0
  3  6  2  0  0  0  0
  3  8  1  0  0  0  0
  4  7  1  0  0  0  0
  4  8  2  0  0  0  0
  5  6  1  0  0  0  0
  5  7  1  0  0  0  0
  5  9  2  0  0  0  0
  7 11  2  0  0  0  0
  8 10  1  0  0  0  0
  9 13  1  0  0  0  0
  9 26  1  0  0  0  0
 10 15  2  0  0  0  0
 10 16  1  0  0  0  0
 11 14  1  0  0  0  0
 11 27  1  0  0  0  0
 12 17  2  0  0  0  0
 12 18  1  0  0  0  0
 13 14  2  0  0  0  0
 13 28  1  0  0  0  0
 14 29  1  0  0  0  0
 15 19  1  0  0  0  0
 15 30  1  0  0  0  0
 16 20  2  0  0  0  0
 16 31  1  0  0  0  0
 17 21  1  0  0  0  0
 17 32  1  0  0  0  0
 18 22  2  0  0  0  0
 18 33  1  0  0  0  0
 19 23  2  0  0  0  0
 19 34  1  0  0  0  0
 20 23  1  0  0  0  0
 20 35  1  0  0  0  0
 21 24  2  0  0  0  0
 22 24  1  0  0  0  0
 22 36  1  0  0  0  0
 23 37  1  0  0  0  0
 24 38  1  0  0  0  0
M  END
> <PUBCHEM_COMPOUND_CID>
2562583

> <PUBCHEM_CONFORMER_RMSD>
0.6

> <PUBCHEM_CONFORMER_DIVERSEORDER>
1
28
23
33
5
16
6
34
20
14
25
29
19
27
22
26
13
17
7
18
24
21
32
9
8
15
10
2
30
31
3
4
11
12

> <PUBCHEM_MMFF94_PARTIAL_CHARGES>
36
1 -0.11
11 -0.15
12 0.1
13 -0.15
14 -0.15
15 -0.15
16 -0.15
17 -0.15
18 -0.15
19 -0.15
2 -0.6
20 -0.15
21 0.11
22 -0.15
23 -0.15
24 -0.15
25 0.4
26 0.15
27 0.15
28 0.15
29 0.15
3 -0.62
30 0.15
31 0.15
32 0.15
33 0.15
34 0.15
35 0.15
36 0.15
37 0.15
38 0.15
4 -0.62
6 0.41
7 0.31
8 0.62
9 -0.15

> <PUBCHEM_EFFECTIVE_ROTOR_COUNT>
3

> <PUBCHEM_PHARMACOPHORE_FEATURES>
8
1 1 hydrophobe
1 2 donor
3 2 3 6 cation
3 3 4 8 cation
6 10 15 16 19 20 23 rings
6 12 17 18 21 22 24 rings
6 3 4 5 6 7 8 rings
6 5 7 9 11 13 14 rings

> <PUBCHEM_HEAVY_ATOM_COUNT>
24

> <PUBCHEM_ATOM_DEF_STEREO_COUNT>
0

> <PUBCHEM_ATOM_UDEF_STEREO_COUNT>
0

> <PUBCHEM_BOND_DEF_STEREO_COUNT>
0

> <PUBCHEM_BOND_UDEF_STEREO_COUNT>
0

> <PUBCHEM_ISOTOPIC_ATOM_COUNT>
0

> <PUBCHEM_COMPONENT_COUNT>
1

> <PUBCHEM_CACTVS_TAUTO_COUNT>
3

> <PUBCHEM_CONFORMER_ID>
00271A1700000001

> <PUBCHEM_MMFF94_ENERGY>
86.5933

> <PUBCHEM_FEATURE_SELFOVERLAP>
40.769

> <PUBCHEM_SHAPE_FINGERPRINT>
10411042 1 18268425724615109671
1100329 8 18196366142724176520
11049842 53 14925881789648570881
11056379 131 17548987659075957838
114674 6 18261393385920223867
11578080 2 17199915935364873393
12107183 9 18127984005926695449
12202916 173 17032463952983517595
12363563 72 18268431226673963759
12553582 1 18121781629883338299
12788726 201 17615684038373999155
13140716 1 17982161528767643040
13533116 47 18411142468062051347
13692114 37 17334758164467946638
138480 1 18411696560864422022
13911987 19 18190765174768832076
13955234 65 18341330110521164641
14251757 5 17831581976887530957
14363568 33 18266479735089246738
14659021 117 17759515574109699170
14844126 61 17400078574142590578
14866123 147 17330553147078137347
15042514 8 17548418107298632420
15927050 60 17907855460059188204
1813 80 17988088776930445654
19302320 297 15669306062110917522
19427546 20 17834122940349992446
19591789 44 18122066665814997316
1979834 28 17323551912610847587
20028762 73 17912355734738475694
20101258 96 18125729980649608650
20645477 70 18336534019452485231
20693207 138 18186237321207848863
20832881 197 18191583039615676821
21120745 212 17982186530320769604
21133410 171 16962896319012215207
21133410 32 16446486673674333498
21197605 99 17615413992680452859
21796203 349 18194714551199661354
221490 88 18408046208093670247
22849339 104 16903573178109030230
23558518 356 17400086275156601950
23559900 14 18409718557084864525
23845131 108 17548407559106743465
3091708 16 9214315939693009356
3421961 26 18412540998758551125
4403749 210 17472406034209189961
463206 1 18336267838744461647
5309563 4 18340486651674383279
613672 6 18194384624601762931
6442390 28 17690568901797613644
6443956 14 18409727335433840125
6669772 16 18126573551356470724
6673363 416 18198638636503405614
9709674 26 18334571382791742551
9777508 108 16972795698183325161

> <PUBCHEM_SHAPE_MULTIPOLES>
484.91
8.5
6.62
1.14
10.93
0.92
-0.35
-5.16
0.13
-9.69
-1.12
1.61
-0.39
2.56

> <PUBCHEM_SHAPE_SELFOVERLAP>
1067.823

> <PUBCHEM_SHAPE_VOLUME>
266.9

> <PUBCHEM_COORDINATE_TYPE>
2
5
10

$$$$