159
 OpenBabel03292022013D

 84 86  0  0  1  0  0  0  0  0999 V2000
    8.0114   -1.6104    1.7324 C   0  0  0  0  0  0  0  0  0  0  0  0
    7.5009   -0.9220    2.8672 O   0  0  0  0  0  0  0  0  0  0  0  0
    6.8397    0.2541    2.6388 C   0  0  0  0  0  0  0  0  0  0  0  0
    6.4220    0.9189    3.7873 C   0  0  0  0  0  0  0  0  0  0  0  0
    5.7379    2.1320    3.7013 C   0  0  0  0  0  0  0  0  0  0  0  0
    5.4372    2.7014    2.4518 C   0  0  0  0  0  0  0  0  0  0  0  0
    4.6883    4.0159    2.3302 C   0  0  0  0  0  0  0  0  0  0  0  0
    4.3041    4.6093    3.5979 N   0  0  0  0  0  0  0  0  0  0  0  0
    4.7676    5.8338    4.0178 C   0  0  0  0  0  0  0  0  0  0  0  0
    5.4880    6.5593    3.3389 O   0  0  0  0  0  0  0  0  0  0  0  0
    4.3414    6.2031    5.3763 C   0  0  0  0  0  0  0  0  0  0  0  0
    4.7041    7.3972    5.9725 C   0  0  0  0  0  0  0  0  0  0  0  0
    4.1248    7.4719    7.5752 S   0  0  0  0  0  0  0  0  0  0  0  0
    3.4413    5.8964    7.3975 C   0  0  0  0  0  0  0  0  0  0  0  0
    2.8171    5.2313    8.6155 C   0  0  1  0  0  0  0  0  0  0  0  0
    1.4453    5.7058    8.7449 N   0  0  0  0  0  0  0  0  0  0  0  0
    1.0125    6.3936    9.8563 C   0  0  0  0  0  0  0  0  0  0  0  0
    1.7466    6.7013   10.7898 O   0  0  0  0  0  0  0  0  0  0  0  0
   -0.4252    6.6825    9.8561 C   0  0  0  0  0  0  0  0  0  0  0  0
   -1.0673    7.3454   10.8853 C   0  0  0  0  0  0  0  0  0  0  0  0
   -2.7558    7.3484   10.6313 S   0  0  0  0  0  0  0  0  0  0  0  0
   -2.5340    6.4562    9.1712 C   0  0  0  0  0  0  0  0  0  0  0  0
   -3.7428    5.8822    8.4421 C   0  0  1  0  0  0  0  0  0  0  0  0
   -4.3174    6.9114    7.5819 N   0  0  0  0  0  0  0  0  0  0  0  0
   -5.3169    7.7220    8.0446 C   0  0  0  0  0  0  0  0  0  0  0  0
   -5.8186    7.6022    9.1537 O   0  0  0  0  0  0  0  0  0  0  0  0
   -5.6654    8.6475    7.1182 O   0  0  0  0  0  0  0  0  0  0  0  0
   -6.7223    9.6018    7.4349 C   0  0  0  0  0  0  0  0  0  0  0  0
   -6.2665   10.5727    8.5323 C   0  0  0  0  0  0  0  0  0  0  0  0
   -6.9666   10.4107    6.1493 C   0  0  0  0  0  0  0  0  0  0  0  0
   -8.0432    8.9051    7.7997 C   0  0  0  0  0  0  0  0  0  0  0  0
   -3.3704    4.5892    7.6624 C   0  0  0  0  0  0  0  0  0  0  0  0
   -2.8644    3.4882    8.6124 C   0  0  0  0  0  0  0  0  0  0  0  0
   -4.5653    4.0276    6.8818 C   0  0  0  0  0  0  0  0  0  0  0  0
   -1.2726    6.2452    8.8332 N   0  0  0  0  0  0  0  0  0  0  0  0
    2.8879    3.6816    8.5497 C   0  0  0  0  0  0  0  0  0  0  0  0
    4.3422    3.1863    8.5013 C   0  0  0  0  0  0  0  0  0  0  0  0
    2.2015    3.0278    9.7579 C   0  0  0  0  0  0  0  0  0  0  0  0
    3.5682    5.3626    6.1921 N   0  0  0  0  0  0  0  0  0  0  0  0
    5.8560    2.0209    1.2878 C   0  0  0  0  0  0  0  0  0  0  0  0
    5.5259    2.6164    0.0923 O   0  0  0  0  0  0  0  0  0  0  0  0
    5.9391    1.9605   -1.1025 C   0  0  0  0  0  0  0  0  0  0  0  0
    6.5596    0.8095    1.3899 C   0  0  0  0  0  0  0  0  0  0  0  0
    8.4765   -2.5364    2.0837 H   0  0  0  0  0  0  0  0  0  0  0  0
    8.7825   -1.0173    1.2296 H   0  0  0  0  0  0  0  0  0  0  0  0
    7.2101   -1.8871    1.0392 H   0  0  0  0  0  0  0  0  0  0  0  0
    6.6416    0.4967    4.7647 H   0  0  0  0  0  0  0  0  0  0  0  0
    5.4469    2.6212    4.6254 H   0  0  0  0  0  0  0  0  0  0  0  0
    3.7565    3.8468    1.7787 H   0  0  0  0  0  0  0  0  0  0  0  0
    5.3042    4.7242    1.7651 H   0  0  0  0  0  0  0  0  0  0  0  0
    3.6794    4.1139    4.2228 H   0  0  0  0  0  0  0  0  0  0  0  0
    5.2932    8.1977    5.5461 H   0  0  0  0  0  0  0  0  0  0  0  0
    3.3832    5.5433    9.5032 H   0  0  0  0  0  0  0  0  0  0  0  0
    0.7632    5.5168    8.0175 H   0  0  0  0  0  0  0  0  0  0  0  0
   -0.6307    7.7760   11.7758 H   0  0  0  0  0  0  0  0  0  0  0  0
   -4.4966    5.6012    9.1910 H   0  0  0  0  0  0  0  0  0  0  0  0
   -3.8569    7.1888    6.7284 H   0  0  0  0  0  0  0  0  0  0  0  0
   -5.3740   11.1247    8.2152 H   0  0  0  0  0  0  0  0  0  0  0  0
   -5.9965   10.0557    9.4575 H   0  0  0  0  0  0  0  0  0  0  0  0
   -7.0507   11.2990    8.7725 H   0  0  0  0  0  0  0  0  0  0  0  0
   -6.0504   10.9051    5.8122 H   0  0  0  0  0  0  0  0  0  0  0  0
   -7.7365   11.1772    6.2979 H   0  0  0  0  0  0  0  0  0  0  0  0
   -7.2895    9.7567    5.3305 H   0  0  0  0  0  0  0  0  0  0  0  0
   -7.9792    8.3395    8.7324 H   0  0  0  0  0  0  0  0  0  0  0  0
   -8.3330    8.1928    7.0193 H   0  0  0  0  0  0  0  0  0  0  0  0
   -8.8533    9.6317    7.9262 H   0  0  0  0  0  0  0  0  0  0  0  0
   -2.5762    4.8144    6.9391 H   0  0  0  0  0  0  0  0  0  0  0  0
   -3.6342    3.2139    9.3423 H   0  0  0  0  0  0  0  0  0  0  0  0
   -1.9742    3.7944    9.1685 H   0  0  0  0  0  0  0  0  0  0  0  0
   -2.5941    2.5867    8.0520 H   0  0  0  0  0  0  0  0  0  0  0  0
   -5.3920    3.7715    7.5537 H   0  0  0  0  0  0  0  0  0  0  0  0
   -4.2772    3.1180    6.3439 H   0  0  0  0  0  0  0  0  0  0  0  0
   -4.9340    4.7428    6.1402 H   0  0  0  0  0  0  0  0  0  0  0  0
    2.3734    3.3313    7.6451 H   0  0  0  0  0  0  0  0  0  0  0  0
    4.8945    3.4994    9.3944 H   0  0  0  0  0  0  0  0  0  0  0  0
    4.8770    3.5654    7.6260 H   0  0  0  0  0  0  0  0  0  0  0  0
    4.3769    2.0928    8.4504 H   0  0  0  0  0  0  0  0  0  0  0  0
    2.6715    3.3396   10.6973 H   0  0  0  0  0  0  0  0  0  0  0  0
    2.2702    1.9359    9.6955 H   0  0  0  0  0  0  0  0  0  0  0  0
    1.1385    3.2827    9.8060 H   0  0  0  0  0  0  0  0  0  0  0  0
    5.5840    2.5495   -1.9531 H   0  0  0  0  0  0  0  0  0  0  0  0
    5.4917    0.9635   -1.1828 H   0  0  0  0  0  0  0  0  0  0  0  0
    7.0316    1.9092   -1.1667 H   0  0  0  0  0  0  0  0  0  0  0  0
    6.8893    0.2980    0.4960 H   0  0  0  0  0  0  0  0  0  0  0  0
  1  2  1  0  0  0  0
  1 44  1  0  0  0  0
  1 45  1  0  0  0  0
  1 46  1  0  0  0  0
  2  3  1  0  0  0  0
  3  4  1  0  0  0  0
  3 43  2  0  0  0  0
  4  5  2  0  0  0  0
  4 47  1  0  0  0  0
  5  6  1  0  0  0  0
  5 48  1  0  0  0  0
  6  7  1  0  0  0  0
  6 40  2  0  0  0  0
  7  8  1  0  0  0  0
  7 49  1  0  0  0  0
  7 50  1  0  0  0  0
  8  9  1  0  0  0  0
  8 51  1  0  0  0  0
  9 10  2  0  0  0  0
  9 11  1  0  0  0  0
 11 12  2  0  0  0  0
 11 39  1  0  0  0  0
 12 13  1  0  0  0  0
 12 52  1  0  0  0  0
 13 14  1  0  0  0  0
 14 15  1  0  0  0  0
 14 39  2  0  0  0  0
 15 16  1  0  0  0  0
 15 36  1  0  0  0  0
 15 53  1  1  0  0  0
 16 17  1  0  0  0  0
 16 54  1  0  0  0  0
 17 18  2  0  0  0  0
 17 19  1  0  0  0  0
 19 20  2  0  0  0  0
 19 35  1  0  0  0  0
 20 21  1  0  0  0  0
 20 55  1  0  0  0  0
 21 22  1  0  0  0  0
 22 23  1  0  0  0  0
 22 35  2  0  0  0  0
 23 24  1  0  0  0  0
 23 32  1  0  0  0  0
 23 56  1  1  0  0  0
 24 25  1  0  0  0  0
 24 57  1  0  0  0  0
 25 26  2  0  0  0  0
 25 27  1  0  0  0  0
 27 28  1  0  0  0  0
 28 29  1  0  0  0  0
 28 30  1  0  0  0  0
 28 31  1  0  0  0  0
 29 58  1  0  0  0  0
 29 59  1  0  0  0  0
 29 60  1  0  0  0  0
 30 61  1  0  0  0  0
 30 62  1  0  0  0  0
 30 63  1  0  0  0  0
 31 64  1  0  0  0  0
 31 65  1  0  0  0  0
 31 66  1  0  0  0  0
 32 33  1  0  0  0  0
 32 34  1  0  0  0  0
 32 67  1  0  0  0  0
 33 68  1  0  0  0  0
 33 69  1  0  0  0  0
 33 70  1  0  0  0  0
 34 71  1  0  0  0  0
 34 72  1  0  0  0  0
 34 73  1  0  0  0  0
 36 37  1  0  0  0  0
 36 38  1  0  0  0  0
 36 74  1  0  0  0  0
 37 75  1  0  0  0  0
 37 76  1  0  0  0  0
 37 77  1  0  0  0  0
 38 78  1  0  0  0  0
 38 79  1  0  0  0  0
 38 80  1  0  0  0  0
 40 41  1  0  0  0  0
 40 43  1  0  0  0  0
 41 42  1  0  0  0  0
 42 81  1  0  0  0  0
 42 82  1  0  0  0  0
 42 83  1  0  0  0  0
 43 84  1  0  0  0  0
M  END
>  <Energy>
-4.92367

$$$$