72793833
  -OEChem-03242010103D

 66 69  0     1  0  0  0  0  0999 V2000
    1.6323    2.5720   -1.9568 S   0  0  0  0  0  0  0  0  0  0  0  0
   -5.2004   -0.5527   -1.2550 S   0  0  0  0  0  0  0  0  0  0  0  0
    2.3102   -2.4421    1.7555 S   0  0  0  0  0  0  0  0  0  0  0  0
   -1.0403   -2.3837   -1.7516 O   0  0  0  0  0  0  0  0  0  0  0  0
   -3.1073    3.5115   -1.0723 O   0  0  0  0  0  0  0  0  0  0  0  0
    4.2859    1.6545    1.8905 O   0  0  0  0  0  0  0  0  0  0  0  0
   -2.0347   -2.4965    0.3360 N   0  0  0  0  0  0  0  0  0  0  0  0
   -1.3652    2.2371   -0.2218 N   0  0  0  0  0  0  0  0  0  0  0  0
    4.3298   -0.2642    0.6562 N   0  0  0  0  0  0  0  0  0  0  0  0
   -2.9122    0.0247   -0.2392 N   0  0  0  0  0  0  0  0  0  0  0  0
    1.4290   -1.8444   -0.5863 N   0  0  0  0  0  0  0  0  0  0  0  0
    1.7335    2.1450    0.5805 N   0  0  0  0  0  0  0  0  0  0  0  0
   -3.4242   -2.4168   -0.1231 C   0  0  1  0  0  0  0  0  0  0  0  0
   -0.3651    3.2957   -0.1423 C   0  0  1  0  0  0  0  0  0  0  0  0
    3.8222   -1.2479   -0.3088 C   0  0  1  0  0  0  0  0  0  0  0  0
   -0.4488    4.0102    1.2035 C   0  0  0  0  0  0  0  0  0  0  0  0
    4.8507   -2.3504   -0.5499 C   0  0  0  0  0  0  0  0  0  0  0  0
   -4.3522   -2.9686    0.9551 C   0  0  0  0  0  0  0  0  0  0  0  0
    0.9818    2.6680   -0.3655 C   0  0  0  0  0  0  0  0  0  0  0  0
    2.5073   -1.8053    0.1680 C   0  0  0  0  0  0  0  0  0  0  0  0
   -3.7335   -0.9795   -0.4613 C   0  0  0  0  0  0  0  0  0  0  0  0
    4.3362   -3.3506   -1.5840 C   0  0  0  0  0  0  0  0  0  0  0  0
    6.1841   -1.7548   -0.9985 C   0  0  0  0  0  0  0  0  0  0  0  0
   -4.0302   -4.4336    1.2436 C   0  0  0  0  0  0  0  0  0  0  0  0
   -4.2491   -2.1357    2.2311 C   0  0  0  0  0  0  0  0  0  0  0  0
    0.6193    5.0973    1.3021 C   0  0  0  0  0  0  0  0  0  0  0  0
   -1.8402    4.6048    1.4102 C   0  0  0  0  0  0  0  0  0  0  0  0
   -0.9470   -2.4325   -0.5274 C   0  0  0  0  0  0  0  0  0  0  0  0
   -2.6529    2.4341   -0.6990 C   0  0  0  0  0  0  0  0  0  0  0  0
    3.8824    1.0234    0.9140 C   0  0  0  0  0  0  0  0  0  0  0  0
   -3.4294    1.2035   -0.7476 C   0  0  0  0  0  0  0  0  0  0  0  0
    0.3529   -2.3555    0.1273 C   0  0  0  0  0  0  0  0  0  0  0  0
    2.8883    1.6073    0.0329 C   0  0  0  0  0  0  0  0  0  0  0  0
    0.6581   -2.7398    1.4199 C   0  0  0  0  0  0  0  0  0  0  0  0
   -4.6879    1.0830   -1.3048 C   0  0  0  0  0  0  0  0  0  0  0  0
    3.0164    1.7826   -1.3312 C   0  0  0  0  0  0  0  0  0  0  0  0
   -3.5011   -3.0175   -1.0386 H   0  0  0  0  0  0  0  0  0  0  0  0
    3.6441   -0.7303   -1.2558 H   0  0  0  0  0  0  0  0  0  0  0  0
   -0.5760    4.0168   -0.9434 H   0  0  0  0  0  0  0  0  0  0  0  0
   -5.3910   -2.9229    0.6042 H   0  0  0  0  0  0  0  0  0  0  0  0
    5.0423   -2.9014    0.3807 H   0  0  0  0  0  0  0  0  0  0  0  0
   -0.2757    3.2966    2.0210 H   0  0  0  0  0  0  0  0  0  0  0  0
   -1.8607   -2.4706    1.3338 H   0  0  0  0  0  0  0  0  0  0  0  0
   -1.0995    1.3089    0.0980 H   0  0  0  0  0  0  0  0  0  0  0  0
    5.0035   -0.6181    1.3294 H   0  0  0  0  0  0  0  0  0  0  0  0
    6.6355   -1.1283   -0.2229 H   0  0  0  0  0  0  0  0  0  0  0  0
   -2.6034    3.8340    1.5482 H   0  0  0  0  0  0  0  0  0  0  0  0
   -1.8584    5.2119    2.3231 H   0  0  0  0  0  0  0  0  0  0  0  0
   -2.1287    5.2620    0.5836 H   0  0  0  0  0  0  0  0  0  0  0  0
   -4.4757   -1.0784    2.0644 H   0  0  0  0  0  0  0  0  0  0  0  0
   -4.9840   -2.4967    2.9610 H   0  0  0  0  0  0  0  0  0  0  0  0
   -4.7569   -4.8509    1.9493 H   0  0  0  0  0  0  0  0  0  0  0  0
    0.5149    5.6534    2.2407 H   0  0  0  0  0  0  0  0  0  0  0  0
   -4.0789   -5.0320    0.3275 H   0  0  0  0  0  0  0  0  0  0  0  0
   -3.0361   -4.5638    1.6841 H   0  0  0  0  0  0  0  0  0  0  0  0
    6.9038   -2.5490   -1.2260 H   0  0  0  0  0  0  0  0  0  0  0  0
    6.0640   -1.1462   -1.9016 H   0  0  0  0  0  0  0  0  0  0  0  0
    5.1035   -4.0999   -1.8086 H   0  0  0  0  0  0  0  0  0  0  0  0
    3.4570   -3.8957   -1.2269 H   0  0  0  0  0  0  0  0  0  0  0  0
    4.0733   -2.8534   -2.5242 H   0  0  0  0  0  0  0  0  0  0  0  0
    1.6348    4.6913    1.2899 H   0  0  0  0  0  0  0  0  0  0  0  0
   -3.2734   -2.2063    2.7202 H   0  0  0  0  0  0  0  0  0  0  0  0
    0.5304    5.8169    0.4807 H   0  0  0  0  0  0  0  0  0  0  0  0
    0.0179   -3.1769    2.1730 H   0  0  0  0  0  0  0  0  0  0  0  0
   -5.3040    1.8469   -1.7582 H   0  0  0  0  0  0  0  0  0  0  0  0
    3.8362    1.5008   -1.9770 H   0  0  0  0  0  0  0  0  0  0  0  0
  1 19  1  0  0  0  0
  1 36  1  0  0  0  0
  2 21  1  0  0  0  0
  2 35  1  0  0  0  0
  3 20  1  0  0  0  0
  3 34  1  0  0  0  0
  4 28  2  0  0  0  0
  5 29  2  0  0  0  0
  6 30  2  0  0  0  0
  7 13  1  0  0  0  0
  7 28  1  0  0  0  0
  7 43  1  0  0  0  0
  8 14  1  0  0  0  0
  8 29  1  0  0  0  0
  8 44  1  0  0  0  0
  9 15  1  0  0  0  0
  9 30  1  0  0  0  0
  9 45  1  0  0  0  0
 10 21  2  0  0  0  0
 10 31  1  0  0  0  0
 11 20  2  0  0  0  0
 11 32  1  0  0  0  0
 12 19  2  0  0  0  0
 12 33  1  0  0  0  0
 13 18  1  0  0  0  0
 13 21  1  0  0  0  0
 13 37  1  0  0  0  0
 14 16  1  0  0  0  0
 14 19  1  0  0  0  0
 14 39  1  0  0  0  0
 15 17  1  0  0  0  0
 15 20  1  0  0  0  0
 15 38  1  0  0  0  0
 16 26  1  0  0  0  0
 16 27  1  0  0  0  0
 16 42  1  0  0  0  0
 17 22  1  0  0  0  0
 17 23  1  0  0  0  0
 17 41  1  0  0  0  0
 18 24  1  0  0  0  0
 18 25  1  0  0  0  0
 18 40  1  0  0  0  0
 22 58  1  0  0  0  0
 22 59  1  0  0  0  0
 22 60  1  0  0  0  0
 23 46  1  0  0  0  0
 23 56  1  0  0  0  0
 23 57  1  0  0  0  0
 24 52  1  0  0  0  0
 24 54  1  0  0  0  0
 24 55  1  0  0  0  0
 25 50  1  0  0  0  0
 25 51  1  0  0  0  0
 25 62  1  0  0  0  0
 26 53  1  0  0  0  0
 26 61  1  0  0  0  0
 26 63  1  0  0  0  0
 27 47  1  0  0  0  0
 27 48  1  0  0  0  0
 27 49  1  0  0  0  0
 28 32  1  0  0  0  0
 29 31  1  0  0  0  0
 30 33  1  0  0  0  0
 31 35  2  0  0  0  0
 32 34  2  0  0  0  0
 33 36  2  0  0  0  0
 34 64  1  0  0  0  0
 35 65  1  0  0  0  0
 36 66  1  0  0  0  0
M  END
> <PUBCHEM_COMPOUND_CID>
72793833

> <PUBCHEM_CONFORMER_RMSD>
0.8

> <PUBCHEM_CONFORMER_DIVERSEORDER>
2
9
5
44
35
32
45
12
42
28
26
47
15
6
19
48
29
13
1
20
31
33
21
30
14
22
4
3
7
49
41
38
27
16
34
10
17
37
43
8
39
18
40
11
25
23
24
36
46

> <PUBCHEM_MMFF94_PARTIAL_CHARGES>
33
1 -0.08
10 -0.57
11 -0.57
12 -0.57
13 0.48
14 0.48
15 0.48
19 0.2
2 -0.08
20 0.2
21 0.2
28 0.72
29 0.72
3 -0.08
30 0.72
31 0.14
32 0.14
33 0.14
34 -0.11
35 -0.11
36 -0.11
4 -0.57
43 0.37
44 0.37
45 0.37
5 -0.57
6 -0.57
64 0.15
65 0.15
66 0.15
7 -0.73
8 -0.73
9 -0.73

> <PUBCHEM_EFFECTIVE_ROTOR_COUNT>
4.2

> <PUBCHEM_PHARMACOPHORE_FEATURES>
15
1 10 acceptor
1 11 acceptor
1 12 acceptor
1 4 acceptor
1 5 acceptor
1 6 acceptor
1 7 donor
1 8 donor
1 9 donor
3 16 26 27 hydrophobe
3 17 22 23 hydrophobe
3 18 24 25 hydrophobe
5 1 12 19 33 36 rings
5 2 10 21 31 35 rings
5 3 11 20 32 34 rings

> <PUBCHEM_HEAVY_ATOM_COUNT>
36

> <PUBCHEM_ATOM_DEF_STEREO_COUNT>
3

> <PUBCHEM_ATOM_UDEF_STEREO_COUNT>
0

> <PUBCHEM_BOND_DEF_STEREO_COUNT>
0

> <PUBCHEM_BOND_UDEF_STEREO_COUNT>
0

> <PUBCHEM_ISOTOPIC_ATOM_COUNT>
0

> <PUBCHEM_COMPONENT_COUNT>
1

> <PUBCHEM_CACTVS_TAUTO_COUNT>
4

> <PUBCHEM_CONFORMER_ID>
0456BEE900000002

> <PUBCHEM_MMFF94_ENERGY>
59.0093

> <PUBCHEM_FEATURE_SELFOVERLAP>
76.13

> <PUBCHEM_SHAPE_FINGERPRINT>
10928967 22 17981056524219145767
11513181 2 17699838527870422014
12422481 6 18267605618491064259
12645989 146 18272646822790159678
12788726 201 18123743150364137289
13122387 1 17690553092181148765
14114211 80 17111319826776634365
14117953 113 17111268729477036589
14363568 33 18123201361229280249
144659 178 18339924823066486004
14725015 67 17903896887054228521
15001296 14 18261385667626401384
150020 26 17974853075373143137
15081414 286 18269560614399660162
15297060 5 17771062696499881202
15351339 4 18261392308114923576
15968369 153 18130490986768704900
15968369 26 17977082871843108845
16067689 302 18120931979081255759
161222 10 17762080747637383972
17909252 39 18342185474996866698
20721686 56 18410568530601488382
20764821 26 18261691336491136841
21133410 62 17826803525788321089
22121540 332 17844222105206935994
3298306 158 18192418878842822341
354706 35 17183325761064192229
463206 1 18410008819406875025
5081480 168 17987263103996709806
508706 21 18260537910117828007
56638632 33 17971443283704420185
5776283 40 17470467582356356476

> <PUBCHEM_SHAPE_MULTIPOLES>
704.92
10.87
7.17
1.8
2.15
4.86
0.27
-8.35
-1.79
-2.4
2.41
-0.06
0.06
2.28

> <PUBCHEM_SHAPE_SELFOVERLAP>
1459.759

> <PUBCHEM_SHAPE_VOLUME>
405.5

> <PUBCHEM_COORDINATE_TYPE>
2
5
10

$$$$