127028392
  -OEChem-03242010103D

 40 43  0     0  0  0  0  0  0999 V2000
    6.6848    0.2548   -0.5888 O   0  0  0  0  0  0  0  0  0  0  0  0
    6.0543    1.4289    1.2527 O   0  0  0  0  0  0  0  0  0  0  0  0
    0.6689   -1.6003   -0.5740 N   0  0  0  0  0  0  0  0  0  0  0  0
   -0.8309    0.1960   -0.3280 N   0  0  0  0  0  0  0  0  0  0  0  0
   -3.1479   -0.2010    0.2018 N   0  0  0  0  0  0  0  0  0  0  0  0
   -2.8104    4.7612   -0.1047 N   0  0  0  0  0  0  0  0  0  0  0  0
   -1.6517   -2.0593   -0.0413 C   0  0  0  0  0  0  0  0  0  0  0  0
   -0.6434   -1.1371   -0.3070 C   0  0  0  0  0  0  0  0  0  0  0  0
   -2.9258   -1.5270    0.2149 C   0  0  0  0  0  0  0  0  0  0  0  0
   -2.0886    0.5883   -0.0689 C   0  0  0  0  0  0  0  0  0  0  0  0
    1.9358   -1.0391   -0.3480 C   0  0  0  0  0  0  0  0  0  0  0  0
   -1.4311   -3.4476   -0.0250 C   0  0  0  0  0  0  0  0  0  0  0  0
   -3.9607   -2.4192    0.4850 C   0  0  0  0  0  0  0  0  0  0  0  0
   -2.3344    2.0068   -0.0814 C   0  0  0  0  0  0  0  0  0  0  0  0
   -2.4833   -4.3160    0.2478 C   0  0  0  0  0  0  0  0  0  0  0  0
   -3.7494   -3.8010    0.5031 C   0  0  0  0  0  0  0  0  0  0  0  0
    2.1349   -0.1754    0.7291 C   0  0  0  0  0  0  0  0  0  0  0  0
    2.9955   -1.3454   -1.2017 C   0  0  0  0  0  0  0  0  0  0  0  0
    4.4537    0.0756    0.0989 C   0  0  0  0  0  0  0  0  0  0  0  0
    3.3938    0.3819    0.9525 C   0  0  0  0  0  0  0  0  0  0  0  0
    4.2544   -0.7880   -0.9783 C   0  0  0  0  0  0  0  0  0  0  0  0
   -3.5842    2.4962   -0.4450 C   0  0  0  0  0  0  0  0  0  0  0  0
   -1.3225    2.8930    0.2707 C   0  0  0  0  0  0  0  0  0  0  0  0
   -3.7693    3.8693   -0.4406 C   0  0  0  0  0  0  0  0  0  0  0  0
   -1.6088    4.2484    0.2432 C   0  0  0  0  0  0  0  0  0  0  0  0
    5.7663    0.6559    0.3328 C   0  0  0  0  0  0  0  0  0  0  0  0
    0.6864   -2.3830   -1.2220 H   0  0  0  0  0  0  0  0  0  0  0  0
   -0.4530   -3.8818   -0.2121 H   0  0  0  0  0  0  0  0  0  0  0  0
   -4.9610   -2.0415    0.6881 H   0  0  0  0  0  0  0  0  0  0  0  0
   -2.3169   -5.3888    0.2633 H   0  0  0  0  0  0  0  0  0  0  0  0
   -4.5762   -4.4720    0.7174 H   0  0  0  0  0  0  0  0  0  0  0  0
    1.3287    0.0685    1.4159 H   0  0  0  0  0  0  0  0  0  0  0  0
    2.8535   -2.0163   -2.0452 H   0  0  0  0  0  0  0  0  0  0  0  0
    3.5291    1.0503    1.7988 H   0  0  0  0  0  0  0  0  0  0  0  0
    5.0514   -1.0532   -1.6673 H   0  0  0  0  0  0  0  0  0  0  0  0
   -4.4053    1.8495   -0.7371 H   0  0  0  0  0  0  0  0  0  0  0  0
   -0.3327    2.5643    0.5711 H   0  0  0  0  0  0  0  0  0  0  0  0
   -4.7247    4.3020   -0.7185 H   0  0  0  0  0  0  0  0  0  0  0  0
   -0.8547    4.9811    0.5112 H   0  0  0  0  0  0  0  0  0  0  0  0
    7.5663    0.6516   -0.4220 H   0  0  0  0  0  0  0  0  0  0  0  0
  1 26  1  0  0  0  0
  1 40  1  0  0  0  0
  2 26  2  0  0  0  0
  3  8  1  0  0  0  0
  3 11  1  0  0  0  0
  3 27  1  0  0  0  0
  4  8  2  0  0  0  0
  4 10  1  0  0  0  0
  5  9  1  0  0  0  0
  5 10  2  0  0  0  0
  6 24  2  0  0  0  0
  6 25  1  0  0  0  0
  7  8  1  0  0  0  0
  7  9  1  0  0  0  0
  7 12  2  0  0  0  0
  9 13  2  0  0  0  0
 10 14  1  0  0  0  0
 11 17  2  0  0  0  0
 11 18  1  0  0  0  0
 12 15  1  0  0  0  0
 12 28  1  0  0  0  0
 13 16  1  0  0  0  0
 13 29  1  0  0  0  0
 14 22  2  0  0  0  0
 14 23  1  0  0  0  0
 15 16  2  0  0  0  0
 15 30  1  0  0  0  0
 16 31  1  0  0  0  0
 17 20  1  0  0  0  0
 17 32  1  0  0  0  0
 18 21  2  0  0  0  0
 18 33  1  0  0  0  0
 19 20  2  0  0  0  0
 19 21  1  0  0  0  0
 19 26  1  0  0  0  0
 20 34  1  0  0  0  0
 21 35  1  0  0  0  0
 22 24  1  0  0  0  0
 22 36  1  0  0  0  0
 23 25  2  0  0  0  0
 23 37  1  0  0  0  0
 24 38  1  0  0  0  0
 25 39  1  0  0  0  0
M  END
> <PUBCHEM_COMPOUND_CID>
127028392

> <PUBCHEM_CONFORMER_RMSD>
0.8

> <PUBCHEM_CONFORMER_DIVERSEORDER>
1
7
4
6
3
8
9
5
2

> <PUBCHEM_MMFF94_PARTIAL_CHARGES>
38
1 -0.65
10 0.62
11 0.1
12 -0.15
13 -0.15
15 -0.15
16 -0.15
17 -0.15
18 -0.15
19 0.09
2 -0.57
20 -0.15
21 -0.15
22 -0.15
23 -0.15
24 0.16
25 0.16
26 0.63
27 0.4
28 0.15
29 0.15
3 -0.6
30 0.15
31 0.15
32 0.15
33 0.15
34 0.15
35 0.15
36 0.15
37 0.15
38 0.15
39 0.15
4 -0.62
40 0.5
5 -0.62
6 -0.62
8 0.41
9 0.31

> <PUBCHEM_EFFECTIVE_ROTOR_COUNT>
4

> <PUBCHEM_PHARMACOPHORE_FEATURES>
11
1 1 acceptor
1 2 acceptor
1 3 donor
1 6 acceptor
3 1 2 26 anion
3 3 4 8 cation
3 4 5 10 cation
6 11 17 18 19 20 21 rings
6 4 5 7 8 9 10 rings
6 6 14 22 23 24 25 rings
6 7 9 12 13 15 16 rings

> <PUBCHEM_HEAVY_ATOM_COUNT>
26

> <PUBCHEM_ATOM_DEF_STEREO_COUNT>
0

> <PUBCHEM_ATOM_UDEF_STEREO_COUNT>
0

> <PUBCHEM_BOND_DEF_STEREO_COUNT>
0

> <PUBCHEM_BOND_UDEF_STEREO_COUNT>
0

> <PUBCHEM_ISOTOPIC_ATOM_COUNT>
0

> <PUBCHEM_COMPONENT_COUNT>
1

> <PUBCHEM_CACTVS_TAUTO_COUNT>
9

> <PUBCHEM_CONFORMER_ID>
07924CA800000001

> <PUBCHEM_MMFF94_ENERGY>
97.4458

> <PUBCHEM_FEATURE_SELFOVERLAP>
56.051

> <PUBCHEM_SHAPE_FINGERPRINT>
10006869 2 18265048038776580731
10411042 1 18121782995957680051
10937287 8 18049441440003567597
11056379 131 18409455799338545470
11059845 2 17975667543317700184
12107183 9 17973712581489656874
12173636 292 18265896861066869623
12788726 201 18116448096418865842
13140716 1 18191594266217447171
138480 1 16392399162767336621
13955234 65 17256534016007314841
13965767 371 17536032160472610964
14466204 15 17040348022078184834
14508225 48 18125428959657081607
14849402 71 17402053292889117195
15230672 131 18047762499372224190
15463212 79 18187642440642604529
15961568 22 17978508964536886304
16087824 20 18410292511615105263
17844677 252 18337115657225271206
17980427 26 17618488897026329621
20101258 96 18265619964477765227
20238998 120 18269275841225572193
20600515 1 18055375749362162183
21033650 10 18117023077403975598
21133410 127 17104824526852129556
21133410 221 17555692747486861392
21304253 13 18268436913912088771
2132832 1 18042126633872526140
21796203 349 17396457212269445563
22440779 20 16962737065450303410
22956985 138 17109877297596975283
23366157 5 17253996867066824823
23557571 272 18341619239213960270
23559900 14 17762612198570363091
23845131 108 17976549308604169889
249057 25 17749675190634480972
283562 15 18411134694086842975
3091708 16 8986356337443012587
3117164 225 18120079590811901258
3418910 222 18045226196598008596
4058900 60 17836654023858397241
4409770 3 18334569153782778887
469060 322 18266476449391442586
508706 21 18342165674881374496
5104073 3 18343303661290600682
6673363 416 17904500828867120420
6677587 24 15438699433097580607
6700243 42 17840345334054138254
7808743 9 18337108969455308896
84936 182 17476356102687916145
9849439 229 18049714127377399193
9981440 41 18119530929966351137

> <PUBCHEM_SHAPE_MULTIPOLES>
503.41
11.35
6.13
0.88
22.41
3.15
0
2.08
0.83
-12.19
0.26
0.76
-0.05
1.7

> <PUBCHEM_SHAPE_SELFOVERLAP>
1128.441

> <PUBCHEM_SHAPE_VOLUME>
263.9

> <PUBCHEM_COORDINATE_TYPE>
2
5
10

$$$$