134156590
  -OEChem-03242010103D

 50 53  0     1  0  0  0  0  0999 V2000
   -6.2180    0.0113    1.5595 Cl  0  0  0  0  0  0  0  0  0  0  0  0
   -2.8368    2.5544   -1.3163 O   0  0  0  0  0  0  0  0  0  0  0  0
   -2.4686   -3.4409   -0.6190 O   0  0  0  0  0  0  0  0  0  0  0  0
   -5.3741    2.2086   -0.2948 O   0  0  0  0  0  0  0  0  0  0  0  0
   -0.6724   -2.0884   -0.0932 N   0  0  0  0  0  0  0  0  0  0  0  0
    0.6113   -1.7169   -0.3666 N   0  0  0  0  0  0  0  0  0  0  0  0
   -1.2293   -1.4083    1.0782 C   0  0  1  0  0  0  0  0  0  0  0  0
   -0.0156   -0.7206    1.6914 C   0  0  0  0  0  0  0  0  0  0  0  0
    0.9949   -0.9270    0.5900 C   0  0  0  0  0  0  0  0  0  0  0  0
   -2.3404   -0.4439    0.7139 C   0  0  0  0  0  0  0  0  0  0  0  0
    2.3313   -0.2940    0.6306 C   0  0  0  0  0  0  0  0  0  0  0  0
   -2.0817    0.6261   -0.1428 C   0  0  0  0  0  0  0  0  0  0  0  0
   -3.6213   -0.6260    1.2351 C   0  0  0  0  0  0  0  0  0  0  0  0
   -1.3250   -3.0444   -0.8480 C   0  0  0  0  0  0  0  0  0  0  0  0
    3.2369   -0.5108   -0.4084 C   0  0  0  0  0  0  0  0  0  0  0  0
    2.6846    0.5170    1.7050 C   0  0  0  0  0  0  0  0  0  0  0  0
   -3.1039    1.5139   -0.4784 C   0  0  0  0  0  0  0  0  0  0  0  0
    4.5097    0.0822   -0.3849 C   0  0  0  0  0  0  0  0  0  0  0  0
   -4.6436    0.2618    0.8995 C   0  0  0  0  0  0  0  0  0  0  0  0
    4.8691    0.9069    0.7077 C   0  0  0  0  0  0  0  0  0  0  0  0
   -4.3849    1.3316    0.0428 C   0  0  0  0  0  0  0  0  0  0  0  0
    3.9449    1.1142    1.7448 C   0  0  0  0  0  0  0  0  0  0  0  0
   -0.5384   -3.6005   -2.0097 C   0  0  0  0  0  0  0  0  0  0  0  0
    5.4339   -0.1251   -1.4219 C   0  0  0  0  0  0  0  0  0  0  0  0
    6.1420    1.4997    0.7313 C   0  0  0  0  0  0  0  0  0  0  0  0
    6.6942    0.4719   -1.3820 C   0  0  0  0  0  0  0  0  0  0  0  0
    7.0477    1.2827   -0.3076 C   0  0  0  0  0  0  0  0  0  0  0  0
   -1.5011    2.6671   -1.8036 C   0  0  0  0  0  0  0  0  0  0  0  0
   -6.1451    1.8977   -1.4526 C   0  0  0  0  0  0  0  0  0  0  0  0
   -1.6166   -2.1771    1.7583 H   0  0  0  0  0  0  0  0  0  0  0  0
    0.3275   -1.2565    2.5832 H   0  0  0  0  0  0  0  0  0  0  0  0
   -0.1697    0.3344    1.9311 H   0  0  0  0  0  0  0  0  0  0  0  0
   -1.0727    0.7240   -0.5253 H   0  0  0  0  0  0  0  0  0  0  0  0
   -3.8225   -1.4608    1.9026 H   0  0  0  0  0  0  0  0  0  0  0  0
    2.9640   -1.1440   -1.2508 H   0  0  0  0  0  0  0  0  0  0  0  0
    2.0089    0.7038    2.5338 H   0  0  0  0  0  0  0  0  0  0  0  0
    4.2006    1.7433    2.5949 H   0  0  0  0  0  0  0  0  0  0  0  0
    0.3611   -4.1052   -1.6464 H   0  0  0  0  0  0  0  0  0  0  0  0
   -0.2629   -2.7958   -2.6970 H   0  0  0  0  0  0  0  0  0  0  0  0
   -1.1510   -4.3265   -2.5522 H   0  0  0  0  0  0  0  0  0  0  0  0
    5.1796   -0.7551   -2.2718 H   0  0  0  0  0  0  0  0  0  0  0  0
    6.4396    2.1372    1.5612 H   0  0  0  0  0  0  0  0  0  0  0  0
    7.3997    0.3034   -2.1905 H   0  0  0  0  0  0  0  0  0  0  0  0
    8.0290    1.7472   -0.2773 H   0  0  0  0  0  0  0  0  0  0  0  0
   -1.4693    3.5484   -2.4528 H   0  0  0  0  0  0  0  0  0  0  0  0
   -1.2229    1.8076   -2.4233 H   0  0  0  0  0  0  0  0  0  0  0  0
   -0.7879    2.8464   -0.9917 H   0  0  0  0  0  0  0  0  0  0  0  0
   -6.9390    2.6439   -1.5453 H   0  0  0  0  0  0  0  0  0  0  0  0
   -6.6050    0.9082   -1.3677 H   0  0  0  0  0  0  0  0  0  0  0  0
   -5.5197    1.9414   -2.3498 H   0  0  0  0  0  0  0  0  0  0  0  0
  1 19  1  0  0  0  0
  2 17  1  0  0  0  0
  2 28  1  0  0  0  0
  3 14  2  0  0  0  0
  4 21  1  0  0  0  0
  4 29  1  0  0  0  0
  5  6  1  0  0  0  0
  5  7  1  0  0  0  0
  5 14  1  0  0  0  0
  6  9  2  0  0  0  0
  7  8  1  0  0  0  0
  7 10  1  0  0  0  0
  7 30  1  0  0  0  0
  8  9  1  0  0  0  0
  8 31  1  0  0  0  0
  8 32  1  0  0  0  0
  9 11  1  0  0  0  0
 10 12  2  0  0  0  0
 10 13  1  0  0  0  0
 11 15  2  0  0  0  0
 11 16  1  0  0  0  0
 12 17  1  0  0  0  0
 12 33  1  0  0  0  0
 13 19  2  0  0  0  0
 13 34  1  0  0  0  0
 14 23  1  0  0  0  0
 15 18  1  0  0  0  0
 15 35  1  0  0  0  0
 16 22  2  0  0  0  0
 16 36  1  0  0  0  0
 17 21  2  0  0  0  0
 18 20  1  0  0  0  0
 18 24  2  0  0  0  0
 19 21  1  0  0  0  0
 20 22  1  0  0  0  0
 20 25  2  0  0  0  0
 22 37  1  0  0  0  0
 23 38  1  0  0  0  0
 23 39  1  0  0  0  0
 23 40  1  0  0  0  0
 24 26  1  0  0  0  0
 24 41  1  0  0  0  0
 25 27  1  0  0  0  0
 25 42  1  0  0  0  0
 26 27  2  0  0  0  0
 26 43  1  0  0  0  0
 27 44  1  0  0  0  0
 28 45  1  0  0  0  0
 28 46  1  0  0  0  0
 28 47  1  0  0  0  0
 29 48  1  0  0  0  0
 29 49  1  0  0  0  0
 29 50  1  0  0  0  0
M  END
> <PUBCHEM_COMPOUND_CID>
134156590

> <PUBCHEM_CONFORMER_RMSD>
0.8

> <PUBCHEM_CONFORMER_DIVERSEORDER>
1
52
100
74
104
39
19
33
83
105
16
48
94
93
71
60
65
57
30
97
75
86
82
73
64
78
77
45
61
101
96
43
55
92
37
90
40
66
54
24
2
62
102
85
27
5
38
88
87
56
91
79
34
95
81
49
47
89
17
22
70
67
69
80
58
99
14
35
76
103
3
28
42
72
63
21
98
15
59
26
23
50
84
68
36
25
18
51
46
41
7
53
44
4
9
8
20
29
12
6
10
32
31
13
11

> <PUBCHEM_MMFF94_PARTIAL_CHARGES>
36
1 -0.18
10 -0.14
11 0.09
12 -0.15
13 -0.15
14 0.57
15 -0.15
16 -0.15
17 0.08
19 0.18
2 -0.36
21 0.08
22 -0.15
23 0.06
24 -0.15
25 -0.15
26 -0.15
27 -0.15
28 0.28
29 0.28
3 -0.57
33 0.15
34 0.15
35 0.15
36 0.15
37 0.15
4 -0.36
41 0.15
42 0.15
43 0.15
44 0.15
5 -0.3
6 -0.51
7 0.44
8 0.06
9 0.3

> <PUBCHEM_EFFECTIVE_ROTOR_COUNT>
5.6

> <PUBCHEM_PHARMACOPHORE_FEATURES>
8
1 2 acceptor
1 3 acceptor
1 4 acceptor
1 6 acceptor
5 5 6 7 8 9 rings
6 10 12 13 17 19 21 rings
6 11 15 16 18 20 22 rings
6 18 20 24 25 26 27 rings

> <PUBCHEM_HEAVY_ATOM_COUNT>
29

> <PUBCHEM_ATOM_DEF_STEREO_COUNT>
0

> <PUBCHEM_ATOM_UDEF_STEREO_COUNT>
1

> <PUBCHEM_BOND_DEF_STEREO_COUNT>
0

> <PUBCHEM_BOND_UDEF_STEREO_COUNT>
0

> <PUBCHEM_ISOTOPIC_ATOM_COUNT>
0

> <PUBCHEM_COMPONENT_COUNT>
1

> <PUBCHEM_CACTVS_TAUTO_COUNT>
2

> <PUBCHEM_CONFORMER_ID>
07FF112E00000001

> <PUBCHEM_MMFF94_ENERGY>
104.2193

> <PUBCHEM_FEATURE_SELFOVERLAP>
40.63

> <PUBCHEM_SHAPE_FINGERPRINT>
10006869 2 17823963555123627325
10165383 225 18201449068730594219
10369192 42 18271816705022979689
105312 117 18342457045172429110
10670039 82 17894916192243118580
10906281 52 18043525015949655501
11135926 11 17488766535950771830
11488393 25 17982458096365264687
11595378 159 17458335339116009760
11796584 16 11600003219762529969
11991303 11 18342459278482161270
12236239 1 16588025710390246168
12516196 113 11241976987909009795
12596602 18 16008750203761258288
12760667 363 8646772188067577875
12969540 114 18201431467812001691
13402501 40 18409167705706812616
13911987 19 18201716228723673465
14341114 328 16950283974983025641
14840074 17 18187919552555333661
14856354 85 17458918148787380842
15183329 4 16415480428674965640
15238133 3 17458068175197234580
15324884 4 18047503070478006595
15575132 122 18187638051650732589
15961568 22 17968100776619251469
17980427 23 17603872187384299567
19958102 18 18201997763672210286
21033648 29 18343576356810579560
21756936 100 17895192242428104266
22122407 14 16950580886135846012
22393880 68 18059293271001134930
23198884 109 17632866321139403713
23559900 14 17679309559759824235
24771293 8 18188776042718999669
25019877 29 18060429036057460863
2838139 119 18336253566219334248
3004659 81 13110958730408927032
3729539 64 17914911846086587046
392239 28 16588892159944554929
4015057 19 15984817198757898314
44249763 50 18270671099991020328
44802255 64 18337967769862695942
484985 159 11527667539946541717
508706 21 18270109236125929990
5252454 2 18341323440252415714
5718773 13 9366758777757670977
57527293 21 18264486188466506955
57527585 21 18122600792407173237
59755656 520 17847068795902420251
6327066 14 18408879612316932669
6608658 132 18187631514525657789
6669772 16 18130514041547327038
7808743 9 18333729126477223192

> <PUBCHEM_SHAPE_MULTIPOLES>
571.11
16.3
3.14
1.81
12.49
2.27
0.11
-11.23
1.13
-3.51
2.2
-0.2
-0.06
1.62

> <PUBCHEM_SHAPE_SELFOVERLAP>
1243.625

> <PUBCHEM_SHAPE_VOLUME>
314.2

> <PUBCHEM_COORDINATE_TYPE>
2
5
10

$$$$