160
 OpenBabel03292022013D

 47 50  0  0  0  0  0  0  0  0999 V2000
    6.4196   -2.6517    2.2225 C   0  0  0  0  0  0  0  0  0  0  0  0
    7.3207   -1.4523    2.0340 C   0  0  0  0  0  0  0  0  0  0  0  0
    8.1123   -1.1302    2.9110 O   0  0  0  0  0  0  0  0  0  0  0  0
    7.1694   -0.8706    0.7823 N   0  0  0  0  0  0  0  0  0  0  0  0
    7.9123    0.2061    0.2451 C   0  0  0  0  0  0  0  0  0  0  0  0
    8.8780    0.9045    0.9729 C   0  0  0  0  0  0  0  0  0  0  0  0
    9.5905    1.9513    0.3850 C   0  0  0  0  0  0  0  0  0  0  0  0
    9.3610    2.2963   -0.9422 C   0  0  0  0  0  0  0  0  0  0  0  0
    8.4142    1.5987   -1.7026 C   0  0  0  0  0  0  0  0  0  0  0  0
    8.1439    2.0158   -3.0356 N   0  0  0  0  0  0  0  0  0  0  0  0
    7.0926    2.9375   -3.3257 C   0  0  0  0  0  0  0  0  0  0  0  0
    6.1650    3.1482   -2.3834 N   0  0  0  0  0  0  0  0  0  0  0  0
    5.1374    3.9488   -2.6874 C   0  0  0  0  0  0  0  0  0  0  0  0
    3.8522    3.5605   -2.0715 C   0  0  0  0  0  0  0  0  0  0  0  0
    2.6227    3.9363   -2.6520 C   0  0  0  0  0  0  0  0  0  0  0  0
    1.4234    3.3237   -2.2832 C   0  0  0  0  0  0  0  0  0  0  0  0
    1.4215    2.3257   -1.3120 C   0  0  0  0  0  0  0  0  0  0  0  0
    2.6239    1.9782   -0.6878 C   0  0  0  0  0  0  0  0  0  0  0  0
    2.6531    0.8713    0.2659 N   0  3  0  0  0  0  0  0  0  0  0  0
    1.6105    0.6314    0.8903 O   0  0  0  0  0  0  0  0  0  0  0  0
    3.7042    0.2242    0.3692 O   0  5  0  0  0  0  0  0  0  0  0  0
    3.8236    2.6079   -1.0358 C   0  0  0  0  0  0  0  0  0  0  0  0
    5.0794    4.7275   -3.7767 N   0  0  0  0  0  0  0  0  0  0  0  0
    5.9873    4.4994   -4.7237 C   0  0  0  0  0  0  0  0  0  0  0  0
    5.8691    5.1967   -5.9169 C   0  0  0  0  0  0  0  0  0  0  0  0
    6.6651    4.8949   -7.0227 C   0  0  0  0  0  0  0  0  0  0  0  0
    7.6113    3.8825   -6.9329 C   0  0  0  0  0  0  0  0  0  0  0  0
    7.7932    3.2160   -5.7221 C   0  0  0  0  0  0  0  0  0  0  0  0
    6.9930    3.5318   -4.5959 C   0  0  0  0  0  0  0  0  0  0  0  0
    7.6677    0.5754   -1.0868 C   0  0  0  0  0  0  0  0  0  0  0  0
    6.2436   -2.8055    3.2914 H   0  0  0  0  0  0  0  0  0  0  0  0
    6.9083   -3.5348    1.8069 H   0  0  0  0  0  0  0  0  0  0  0  0
    5.4508   -2.5033    1.7369 H   0  0  0  0  0  0  0  0  0  0  0  0
    6.4548   -1.2563    0.1808 H   0  0  0  0  0  0  0  0  0  0  0  0
    9.0915    0.6730    2.0108 H   0  0  0  0  0  0  0  0  0  0  0  0
   10.3207    2.5010    0.9759 H   0  0  0  0  0  0  0  0  0  0  0  0
    9.9083    3.1297   -1.3720 H   0  0  0  0  0  0  0  0  0  0  0  0
    8.9939    2.4225   -3.4152 H   0  0  0  0  0  0  0  0  0  0  0  0
    2.6082    4.6630   -3.4663 H   0  0  0  0  0  0  0  0  0  0  0  0
    0.5024    3.5913   -2.7970 H   0  0  0  0  0  0  0  0  0  0  0  0
    0.4956    1.8082   -1.0762 H   0  0  0  0  0  0  0  0  0  0  0  0
    4.7583    2.2981   -0.5645 H   0  0  0  0  0  0  0  0  0  0  0  0
    5.1073    5.9693   -6.0034 H   0  0  0  0  0  0  0  0  0  0  0  0
    6.5190    5.4317   -7.9567 H   0  0  0  0  0  0  0  0  0  0  0  0
    8.1997    3.6071   -7.8046 H   0  0  0  0  0  0  0  0  0  0  0  0
    8.5248    2.4130   -5.6721 H   0  0  0  0  0  0  0  0  0  0  0  0
    6.9089    0.0664   -1.6714 H   0  0  0  0  0  0  0  0  0  0  0  0
  1  2  1  0  0  0  0
  1 31  1  0  0  0  0
  1 32  1  0  0  0  0
  1 33  1  0  0  0  0
  2  3  2  0  0  0  0
  2  4  1  0  0  0  0
  4  5  1  0  0  0  0
  4 34  1  0  0  0  0
  5  6  1  0  0  0  0
  5 30  2  0  0  0  0
  6  7  2  0  0  0  0
  6 35  1  0  0  0  0
  7  8  1  0  0  0  0
  7 36  1  0  0  0  0
  8  9  2  0  0  0  0
  8 37  1  0  0  0  0
  9 10  1  0  0  0  0
  9 30  1  0  0  0  0
 10 11  1  0  0  0  0
 10 38  1  0  0  0  0
 11 12  1  0  0  0  0
 11 29  2  0  0  0  0
 12 13  2  0  0  0  0
 13 14  1  0  0  0  0
 13 23  1  0  0  0  0
 14 15  1  0  0  0  0
 14 22  2  0  0  0  0
 15 16  2  0  0  0  0
 15 39  1  0  0  0  0
 16 17  1  0  0  0  0
 16 40  1  0  0  0  0
 17 18  2  0  0  0  0
 17 41  1  0  0  0  0
 18 19  1  0  0  0  0
 18 22  1  0  0  0  0
 19 20  2  0  0  0  0
 19 21  1  0  0  0  0
 22 42  1  0  0  0  0
 23 24  2  0  0  0  0
 24 25  1  0  0  0  0
 24 29  1  0  0  0  0
 25 26  2  0  0  0  0
 25 43  1  0  0  0  0
 26 27  1  0  0  0  0
 26 44  1  0  0  0  0
 27 28  2  0  0  0  0
 27 45  1  0  0  0  0
 28 29  1  0  0  0  0
 28 46  1  0  0  0  0
 30 47  1  0  0  0  0
M  CHG  2  19   1  21  -1
M  END
>  <Energy>
52.6332

$$$$