118708520
  -OEChem-03242010103D

 34 36  0     0  0  0  0  0  0999 V2000
   -0.0956    2.5639   -0.0233 F   0  0  0  0  0  0  0  0  0  0  0  0
   -2.3367   -1.9782    0.0366 O   0  0  0  0  0  0  0  0  0  0  0  0
   -1.6650    0.2741   -0.0296 N   0  0  0  0  0  0  0  0  0  0  0  0
    5.9592   -1.2621   -0.5941 N   0  0  0  0  0  0  0  0  0  0  0  0
   -5.7046    1.2602   -0.5785 N   0  0  0  0  0  0  0  0  0  0  0  0
    2.5129    0.0319    0.0055 C   0  0  0  0  0  0  0  0  0  0  0  0
   -0.2721    0.1950   -0.0179 C   0  0  0  0  0  0  0  0  0  0  0  0
    3.9570   -0.0527    0.0165 C   0  0  0  0  0  0  0  0  0  0  0  0
    1.8872    1.2786   -0.0036 C   0  0  0  0  0  0  0  0  0  0  0  0
    1.7461   -1.1333    0.0028 C   0  0  0  0  0  0  0  0  0  0  0  0
    0.4948    1.3601   -0.0154 C   0  0  0  0  0  0  0  0  0  0  0  0
    0.3536   -1.0517   -0.0087 C   0  0  0  0  0  0  0  0  0  0  0  0
    4.7285    0.9370    0.6154 C   0  0  0  0  0  0  0  0  0  0  0  0
   -2.5892   -0.7788   -0.0026 C   0  0  0  0  0  0  0  0  0  0  0  0
   -4.0188   -0.3717    0.0044 C   0  0  0  0  0  0  0  0  0  0  0  0
    4.6149   -1.1222   -0.5693 C   0  0  0  0  0  0  0  0  0  0  0  0
    6.1148    0.8284    0.6102 C   0  0  0  0  0  0  0  0  0  0  0  0
   -4.9934   -1.1881    0.5676 C   0  0  0  0  0  0  0  0  0  0  0  0
   -4.4226    0.8318   -0.5510 C   0  0  0  0  0  0  0  0  0  0  0  0
    6.6761   -0.2806   -0.0020 C   0  0  0  0  0  0  0  0  0  0  0  0
   -6.3231   -0.7817    0.5585 C   0  0  0  0  0  0  0  0  0  0  0  0
   -6.6238    0.4402   -0.0215 C   0  0  0  0  0  0  0  0  0  0  0  0
    2.4443    2.2110   -0.0282 H   0  0  0  0  0  0  0  0  0  0  0  0
    2.1920   -2.1238    0.0358 H   0  0  0  0  0  0  0  0  0  0  0  0
   -0.1691   -1.9977   -0.0090 H   0  0  0  0  0  0  0  0  0  0  0  0
   -2.0210    1.2258   -0.0104 H   0  0  0  0  0  0  0  0  0  0  0  0
    4.2910    1.7938    1.1200 H   0  0  0  0  0  0  0  0  0  0  0  0
    4.0957   -1.9251   -1.0832 H   0  0  0  0  0  0  0  0  0  0  0  0
    6.7364    1.5843    1.0763 H   0  0  0  0  0  0  0  0  0  0  0  0
   -4.7359   -2.1411    1.0216 H   0  0  0  0  0  0  0  0  0  0  0  0
   -3.7368    1.5142   -1.0415 H   0  0  0  0  0  0  0  0  0  0  0  0
    7.7526   -0.4131   -0.0317 H   0  0  0  0  0  0  0  0  0  0  0  0
   -7.0996   -1.4011    0.9926 H   0  0  0  0  0  0  0  0  0  0  0  0
   -7.6459    0.8029   -0.0539 H   0  0  0  0  0  0  0  0  0  0  0  0
  1 11  1  0  0  0  0
  2 14  2  0  0  0  0
  3  7  1  0  0  0  0
  3 14  1  0  0  0  0
  3 26  1  0  0  0  0
  4 16  1  0  0  0  0
  4 20  2  0  0  0  0
  5 19  1  0  0  0  0
  5 22  2  0  0  0  0
  6  8  1  0  0  0  0
  6  9  2  0  0  0  0
  6 10  1  0  0  0  0
  7 11  2  0  0  0  0
  7 12  1  0  0  0  0
  8 13  1  0  0  0  0
  8 16  2  0  0  0  0
  9 11  1  0  0  0  0
  9 23  1  0  0  0  0
 10 12  2  0  0  0  0
 10 24  1  0  0  0  0
 12 25  1  0  0  0  0
 13 17  2  0  0  0  0
 13 27  1  0  0  0  0
 14 15  1  0  0  0  0
 15 18  1  0  0  0  0
 15 19  2  0  0  0  0
 16 28  1  0  0  0  0
 17 20  1  0  0  0  0
 17 29  1  0  0  0  0
 18 21  2  0  0  0  0
 18 30  1  0  0  0  0
 19 31  1  0  0  0  0
 20 32  1  0  0  0  0
 21 22  1  0  0  0  0
 21 33  1  0  0  0  0
 22 34  1  0  0  0  0
M  END
> <PUBCHEM_COMPOUND_CID>
118708520

> <PUBCHEM_CONFORMER_RMSD>
0.6

> <PUBCHEM_CONFORMER_DIVERSEORDER>
1
28
15
29
22
14
18
11
32
23
19
6
10
8
9
17
21
20
4
5
30
12
31
24
7
25
13
16
27
2
3
26

> <PUBCHEM_MMFF94_PARTIAL_CHARGES>
32
1 -0.19
10 -0.15
11 0.19
12 -0.15
13 -0.15
14 0.54
15 0.09
16 0.16
17 -0.15
18 -0.15
19 0.16
2 -0.57
20 0.16
21 -0.15
22 0.16
23 0.15
24 0.15
25 0.15
26 0.37
27 0.15
28 0.15
29 0.15
3 -0.55
30 0.15
31 0.15
32 0.15
33 0.15
34 0.15
4 -0.62
5 -0.62
7 0.12
9 -0.15

> <PUBCHEM_EFFECTIVE_ROTOR_COUNT>
4

> <PUBCHEM_PHARMACOPHORE_FEATURES>
7
1 2 acceptor
1 3 donor
1 4 acceptor
1 5 acceptor
6 4 8 13 16 17 20 rings
6 5 15 18 19 21 22 rings
6 6 7 9 10 11 12 rings

> <PUBCHEM_HEAVY_ATOM_COUNT>
22

> <PUBCHEM_ATOM_DEF_STEREO_COUNT>
0

> <PUBCHEM_ATOM_UDEF_STEREO_COUNT>
0

> <PUBCHEM_BOND_DEF_STEREO_COUNT>
0

> <PUBCHEM_BOND_UDEF_STEREO_COUNT>
0

> <PUBCHEM_ISOTOPIC_ATOM_COUNT>
0

> <PUBCHEM_COMPONENT_COUNT>
1

> <PUBCHEM_CACTVS_TAUTO_COUNT>
5

> <PUBCHEM_CONFORMER_ID>
0713592800000001

> <PUBCHEM_MMFF94_ENERGY>
74.0718

> <PUBCHEM_FEATURE_SELFOVERLAP>
35.522

> <PUBCHEM_SHAPE_FINGERPRINT>
10 15 18334571386896916584
11089746 13 16917345952546899825
11315181 36 17988928885682000641
11646440 116 18343028804451785089
12091667 2 18409729573876607695
12166972 35 18131350856095629529
12236239 1 17632858637822725415
12516196 113 18272651259458967104
13402501 40 18410292506069794295
13533116 47 15554173575862369254
13685833 64 18409733975658884603
1420 363 18411421708627035434
14251764 18 18343585170410095703
14251764 46 18259421927295810983
14856354 85 16081094787983240779
14933364 13 18410576188469680480
15183329 4 18261108552394540883
15849732 13 18272088309837602239
17980427 23 17131567093195736849
18006028 8 18060419105739513792
19141452 34 18059854012644995278
20281389 69 18335419071153311937
21130935 74 18272936028881861283
21236236 1 18201721691685242857
21267235 1 18410018736111353819
21279426 13 18266458702586334671
21521721 280 18060700619739903178
21709351 56 18335413608635173031
21792934 111 18340191995885458008
22224240 67 16773791503044062422
23035841 295 18260265244076998970
23402539 116 18272364295508660655
23536379 177 15719388421591013968
23559900 14 18272362118234710753
23845131 108 17407128655691177352
3004659 81 18113621192505988116
335352 9 18410574010952936351
34797466 226 16271933744161529272
34934 24 18411411813070377918
3545911 37 18411700989250186163
4073 2 18114466776966981818
4340502 62 16515399669030623522
4463277 17 18410011044051805972
5104073 3 18200869562163336008
59755656 215 18409451345631760270
59755656 520 16950280732789236723

> <PUBCHEM_SHAPE_MULTIPOLES>
424.66
18.21
1.66
0.72
3.1
0.31
-0.02
-1.12
-0.71
0.14
0.05
-0.04
-0.01
1.14

> <PUBCHEM_SHAPE_SELFOVERLAP>
937.035

> <PUBCHEM_SHAPE_VOLUME>
227.6

> <PUBCHEM_COORDINATE_TYPE>
2
5
10

$$$$