129903920
  -OEChem-03242010103D

 45 48  0     0  0  0  0  0  0999 V2000
    3.6140    1.2677    1.7449 O   0  0  0  0  0  0  0  0  0  0  0  0
    5.6896    0.6073    0.0174 O   0  0  0  0  0  0  0  0  0  0  0  0
    0.6659   -1.6670   -0.6603 N   0  0  0  0  0  0  0  0  0  0  0  0
   -0.8396    0.1284   -0.4445 N   0  0  0  0  0  0  0  0  0  0  0  0
   -3.1403   -0.2622    0.1565 N   0  0  0  0  0  0  0  0  0  0  0  0
   -2.8440    4.6870   -0.3425 N   0  0  0  0  0  0  0  0  0  0  0  0
   -1.6378   -2.1194   -0.0541 C   0  0  0  0  0  0  0  0  0  0  0  0
   -0.6426   -1.2018   -0.3786 C   0  0  0  0  0  0  0  0  0  0  0  0
   -2.9089   -1.5854    0.2134 C   0  0  0  0  0  0  0  0  0  0  0  0
    1.9341   -1.0903   -0.4866 C   0  0  0  0  0  0  0  0  0  0  0  0
   -2.0932    0.5227   -0.1693 C   0  0  0  0  0  0  0  0  0  0  0  0
   -1.4074   -3.5048    0.0084 C   0  0  0  0  0  0  0  0  0  0  0  0
   -3.9308   -2.4730    0.5419 C   0  0  0  0  0  0  0  0  0  0  0  0
    2.1528   -0.1861    0.5527 C   0  0  0  0  0  0  0  0  0  0  0  0
    2.9755   -1.4219   -1.3532 C   0  0  0  0  0  0  0  0  0  0  0  0
    3.4130    0.3865    0.7256 C   0  0  0  0  0  0  0  0  0  0  0  0
   -2.3489    1.9382   -0.2285 C   0  0  0  0  0  0  0  0  0  0  0  0
   -2.4468   -4.3686    0.3391 C   0  0  0  0  0  0  0  0  0  0  0  0
    4.4545    0.0549   -0.1412 C   0  0  0  0  0  0  0  0  0  0  0  0
   -3.7098   -3.8518    0.6061 C   0  0  0  0  0  0  0  0  0  0  0  0
    4.2356   -0.8492   -1.1806 C   0  0  0  0  0  0  0  0  0  0  0  0
   -3.6104    2.4064   -0.5792 C   0  0  0  0  0  0  0  0  0  0  0  0
   -1.3347    2.8430    0.0654 C   0  0  0  0  0  0  0  0  0  0  0  0
   -3.8047    3.7776   -0.6213 C   0  0  0  0  0  0  0  0  0  0  0  0
   -1.6308    4.1947   -0.0055 C   0  0  0  0  0  0  0  0  0  0  0  0
    2.4971    1.5521    2.5851 C   0  0  0  0  0  0  0  0  0  0  0  0
    6.6986    0.2151   -0.9113 C   0  0  0  0  0  0  0  0  0  0  0  0
    0.6730   -2.4731   -1.2793 H   0  0  0  0  0  0  0  0  0  0  0  0
   -0.4313   -3.9399   -0.1864 H   0  0  0  0  0  0  0  0  0  0  0  0
   -4.9284   -2.0938    0.7553 H   0  0  0  0  0  0  0  0  0  0  0  0
    1.3188    0.0270    1.2120 H   0  0  0  0  0  0  0  0  0  0  0  0
    2.8176   -2.1247   -2.1676 H   0  0  0  0  0  0  0  0  0  0  0  0
   -2.2727   -5.4390    0.3904 H   0  0  0  0  0  0  0  0  0  0  0  0
   -4.5265   -4.5192    0.8655 H   0  0  0  0  0  0  0  0  0  0  0  0
    4.9963   -1.1530   -1.8914 H   0  0  0  0  0  0  0  0  0  0  0  0
   -4.4340    1.7445   -0.8267 H   0  0  0  0  0  0  0  0  0  0  0  0
   -0.3357    2.5315    0.3526 H   0  0  0  0  0  0  0  0  0  0  0  0
   -4.7695    4.1939   -0.8916 H   0  0  0  0  0  0  0  0  0  0  0  0
   -0.8753    4.9412    0.2164 H   0  0  0  0  0  0  0  0  0  0  0  0
    2.8357    2.2731    3.3366 H   0  0  0  0  0  0  0  0  0  0  0  0
    2.1632    0.6618    3.1289 H   0  0  0  0  0  0  0  0  0  0  0  0
    1.6848    2.0327    2.0295 H   0  0  0  0  0  0  0  0  0  0  0  0
    7.6142    0.7496   -0.6369 H   0  0  0  0  0  0  0  0  0  0  0  0
    6.4472    0.5196   -1.9330 H   0  0  0  0  0  0  0  0  0  0  0  0
    6.9212   -0.8548   -0.8376 H   0  0  0  0  0  0  0  0  0  0  0  0
  1 16  1  0  0  0  0
  1 26  1  0  0  0  0
  2 19  1  0  0  0  0
  2 27  1  0  0  0  0
  3  8  1  0  0  0  0
  3 10  1  0  0  0  0
  3 28  1  0  0  0  0
  4  8  2  0  0  0  0
  4 11  1  0  0  0  0
  5  9  1  0  0  0  0
  5 11  2  0  0  0  0
  6 24  2  0  0  0  0
  6 25  1  0  0  0  0
  7  8  1  0  0  0  0
  7  9  1  0  0  0  0
  7 12  2  0  0  0  0
  9 13  2  0  0  0  0
 10 14  2  0  0  0  0
 10 15  1  0  0  0  0
 11 17  1  0  0  0  0
 12 18  1  0  0  0  0
 12 29  1  0  0  0  0
 13 20  1  0  0  0  0
 13 30  1  0  0  0  0
 14 16  1  0  0  0  0
 14 31  1  0  0  0  0
 15 21  2  0  0  0  0
 15 32  1  0  0  0  0
 16 19  2  0  0  0  0
 17 22  2  0  0  0  0
 17 23  1  0  0  0  0
 18 20  2  0  0  0  0
 18 33  1  0  0  0  0
 19 21  1  0  0  0  0
 20 34  1  0  0  0  0
 21 35  1  0  0  0  0
 22 24  1  0  0  0  0
 22 36  1  0  0  0  0
 23 25  2  0  0  0  0
 23 37  1  0  0  0  0
 24 38  1  0  0  0  0
 25 39  1  0  0  0  0
 26 40  1  0  0  0  0
 26 41  1  0  0  0  0
 26 42  1  0  0  0  0
 27 43  1  0  0  0  0
 27 44  1  0  0  0  0
 27 45  1  0  0  0  0
M  END
> <PUBCHEM_COMPOUND_CID>
129903920

> <PUBCHEM_CONFORMER_RMSD>
0.8

> <PUBCHEM_CONFORMER_DIVERSEORDER>
1
36
13
24
32
39
11
33
3
9
35
16
37
22
26
28
23
6
21
40
31
2
34
14
42
19
38
18
20
7
29
4
15
8
41
30
27
17
25
10
12
5

> <PUBCHEM_MMFF94_PARTIAL_CHARGES>
37
1 -0.36
10 0.1
11 0.62
12 -0.15
13 -0.15
14 -0.15
15 -0.15
16 0.08
18 -0.15
19 0.08
2 -0.36
20 -0.15
21 -0.15
22 -0.15
23 -0.15
24 0.16
25 0.16
26 0.28
27 0.28
28 0.4
29 0.15
3 -0.6
30 0.15
31 0.15
32 0.15
33 0.15
34 0.15
35 0.15
36 0.15
37 0.15
38 0.15
39 0.15
4 -0.62
5 -0.62
6 -0.62
8 0.41
9 0.31

> <PUBCHEM_EFFECTIVE_ROTOR_COUNT>
5

> <PUBCHEM_PHARMACOPHORE_FEATURES>
10
1 1 acceptor
1 2 acceptor
1 3 donor
1 6 acceptor
3 3 4 8 cation
3 4 5 11 cation
6 10 14 15 16 19 21 rings
6 4 5 7 8 9 11 rings
6 6 17 22 23 24 25 rings
6 7 9 12 13 18 20 rings

> <PUBCHEM_HEAVY_ATOM_COUNT>
27

> <PUBCHEM_ATOM_DEF_STEREO_COUNT>
0

> <PUBCHEM_ATOM_UDEF_STEREO_COUNT>
0

> <PUBCHEM_BOND_DEF_STEREO_COUNT>
0

> <PUBCHEM_BOND_UDEF_STEREO_COUNT>
0

> <PUBCHEM_ISOTOPIC_ATOM_COUNT>
0

> <PUBCHEM_COMPONENT_COUNT>
1

> <PUBCHEM_CACTVS_TAUTO_COUNT>
8

> <PUBCHEM_CONFORMER_ID>
07BE2D3000000001

> <PUBCHEM_MMFF94_ENERGY>
115.9689

> <PUBCHEM_FEATURE_SELFOVERLAP>
50.923

> <PUBCHEM_SHAPE_FINGERPRINT>
10006869 2 18264482898374007699
10319926 262 18339629089277829370
10411042 1 18121223344555011895
10937287 8 18048599214154629213
11056379 131 18336837454323024662
11059845 2 17974824222136043432
12107183 9 17900532386085083186
12173636 292 18265052440505590519
12769317 202 17619337711118080101
12788726 201 18187362168462803011
13726171 33 18341338851165500928
13785724 45 17977672236161567419
138480 1 16391835113312778709
13965767 371 17462851964946588444
14114211 68 17474418793069763733
14363568 33 17692538127276324920
14466204 15 17111840471318365106
14508225 48 18196926897997380559
15230672 131 18119536428021128502
15684970 41 17467635240276546770
15961568 22 17905886234275269184
16087824 20 18409451385198803023
17980427 26 17617927042342303381
20101258 96 18265061412560370331
21033648 29 18268143158748672760
21033650 10 18044687302655678966
21049683 118 18045481055255457537
21133410 221 17699247176105907312
21792961 116 17988373607368559478
21796203 349 17323839962533830059
22122407 14 15430044235733725303
22182313 1 17917417783720938608
22440779 20 16962173016006327386
23366157 5 17180247128939220951
23557571 272 18412545431038226262
23559900 14 18339361976044151566
23845131 108 17977680706127147873
249057 25 17676775374989866876
283562 15 18338234869852398143
3187 122 18121759871705578529
4058900 60 17836091069610002041
4409770 3 18334009498053501383
508706 21 18341886394485051084
57124632 79 17615398165503959309
6287921 2 17336742783050833544
6673363 416 17903660801972911316
6700243 42 17839503099578458806
7399639 24 17984974045647257858
7808743 9 18335704893133019300
84936 182 17547849655808570441
9777508 108 18411418367575054441
9981440 41 18047190752860608681

> <PUBCHEM_SHAPE_MULTIPOLES>
523.98
10.62
5.99
1.24
17.04
2.33
0.69
0.72
-1.13
-11.76
0.02
1.52
0.39
2.45

> <PUBCHEM_SHAPE_SELFOVERLAP>
1162.293

> <PUBCHEM_SHAPE_VOLUME>
279.9

> <PUBCHEM_COORDINATE_TYPE>
2
5
10

$$$$