127044913
  -OEChem-03242010103D

 66 70  0     0  0  0  0  0  0999 V2000
   -0.5066    3.9330    0.0475 O   0  0  0  0  0  0  0  0  0  0  0  0
   -2.4285    5.8729    0.5649 O   0  0  0  0  0  0  0  0  0  0  0  0
    3.7386   -3.8855    1.0056 O   0  0  0  0  0  0  0  0  0  0  0  0
    9.4797    0.7379    0.1710 O   0  0  0  0  0  0  0  0  0  0  0  0
   -2.5075   -2.6888    0.5764 N   0  0  0  0  0  0  0  0  0  0  0  0
   -3.0252   -0.4041    0.3561 N   0  0  0  0  0  0  0  0  0  0  0  0
   -5.1646    0.2941   -0.5055 N   0  0  0  0  0  0  0  0  0  0  0  0
   -4.6757   -2.0445   -0.2973 C   0  0  0  0  0  0  0  0  0  0  0  0
   -3.4283   -1.6792    0.2010 C   0  0  0  0  0  0  0  0  0  0  0  0
   -5.5353   -0.9905   -0.6475 C   0  0  0  0  0  0  0  0  0  0  0  0
   -3.9299    0.5175   -0.0115 C   0  0  0  0  0  0  0  0  0  0  0  0
   -3.5402    1.8954    0.1374 C   0  0  0  0  0  0  0  0  0  0  0  0
   -1.1045   -2.7366    0.5818 C   0  0  0  0  0  0  0  0  0  0  0  0
   -5.0739   -3.3840   -0.4502 C   0  0  0  0  0  0  0  0  0  0  0  0
   -6.7926   -1.3169   -1.1500 C   0  0  0  0  0  0  0  0  0  0  0  0
   -2.1979    2.2568    0.0221 C   0  0  0  0  0  0  0  0  0  0  0  0
   -4.5049    2.8691    0.3960 C   0  0  0  0  0  0  0  0  0  0  0  0
   -6.3360   -3.6812   -0.9548 C   0  0  0  0  0  0  0  0  0  0  0  0
   -0.4370   -3.5222    1.5216 C   0  0  0  0  0  0  0  0  0  0  0  0
   -0.3777   -1.9981   -0.3521 C   0  0  0  0  0  0  0  0  0  0  0  0
   -7.1961   -2.6463   -1.3050 C   0  0  0  0  0  0  0  0  0  0  0  0
    1.6838   -2.8308    0.5933 C   0  0  0  0  0  0  0  0  0  0  0  0
   -1.8202    3.5920    0.1650 C   0  0  0  0  0  0  0  0  0  0  0  0
   -2.7849    4.5657    0.4237 C   0  0  0  0  0  0  0  0  0  0  0  0
    0.9571   -3.5694    1.5271 C   0  0  0  0  0  0  0  0  0  0  0  0
    1.0164   -2.0451   -0.3463 C   0  0  0  0  0  0  0  0  0  0  0  0
   -4.1272    4.2042    0.5393 C   0  0  0  0  0  0  0  0  0  0  0  0
    3.1372   -2.8794    0.5998 C   0  0  0  0  0  0  0  0  0  0  0  0
    3.8998   -1.6710    0.1338 C   0  0  0  0  0  0  0  0  0  0  0  0
    6.0737   -0.5217   -0.2725 C   0  0  0  0  0  0  0  0  0  0  0  0
    5.2410   -1.6618    0.1493 C   0  0  0  0  0  0  0  0  0  0  0  0
    7.3987   -0.4305    0.1539 C   0  0  0  0  0  0  0  0  0  0  0  0
    5.5371    0.4666   -1.0979 C   0  0  0  0  0  0  0  0  0  0  0  0
    8.1870    0.6489   -0.2453 C   0  0  0  0  0  0  0  0  0  0  0  0
    0.4156    2.8775   -0.2173 C   0  0  0  0  0  0  0  0  0  0  0  0
    6.3254    1.5460   -1.4968 C   0  0  0  0  0  0  0  0  0  0  0  0
   -3.4754    6.8052    0.8280 C   0  0  0  0  0  0  0  0  0  0  0  0
    7.6504    1.6371   -1.0705 C   0  0  0  0  0  0  0  0  0  0  0  0
   10.2287    1.8680   -0.2743 C   0  0  0  0  0  0  0  0  0  0  0  0
   -2.9364   -3.4294    1.1246 H   0  0  0  0  0  0  0  0  0  0  0  0
   -4.4234   -4.2154   -0.1940 H   0  0  0  0  0  0  0  0  0  0  0  0
   -7.4845   -0.5253   -1.4317 H   0  0  0  0  0  0  0  0  0  0  0  0
   -1.4802    1.4727   -0.1939 H   0  0  0  0  0  0  0  0  0  0  0  0
   -5.5576    2.6174    0.5012 H   0  0  0  0  0  0  0  0  0  0  0  0
   -6.6469   -4.7144   -1.0762 H   0  0  0  0  0  0  0  0  0  0  0  0
   -0.9909   -4.1012    2.2562 H   0  0  0  0  0  0  0  0  0  0  0  0
   -0.8750   -1.3948   -1.1070 H   0  0  0  0  0  0  0  0  0  0  0  0
   -8.1829   -2.8698   -1.7001 H   0  0  0  0  0  0  0  0  0  0  0  0
    1.4590   -4.1839    2.2701 H   0  0  0  0  0  0  0  0  0  0  0  0
    1.5403   -1.4852   -1.1152 H   0  0  0  0  0  0  0  0  0  0  0  0
   -4.9295    4.9056    0.7412 H   0  0  0  0  0  0  0  0  0  0  0  0
    3.3327   -0.7923   -0.1448 H   0  0  0  0  0  0  0  0  0  0  0  0
    5.7913   -2.5376    0.4846 H   0  0  0  0  0  0  0  0  0  0  0  0
    7.8279   -1.1943    0.7988 H   0  0  0  0  0  0  0  0  0  0  0  0
    4.5184    0.4270   -1.4723 H   0  0  0  0  0  0  0  0  0  0  0  0
    0.4444    2.1497    0.6010 H   0  0  0  0  0  0  0  0  0  0  0  0
    0.2253    2.4083   -1.1887 H   0  0  0  0  0  0  0  0  0  0  0  0
    1.4121    3.3282   -0.2741 H   0  0  0  0  0  0  0  0  0  0  0  0
    5.9085    2.3128   -2.1435 H   0  0  0  0  0  0  0  0  0  0  0  0
    8.2062    2.5009   -1.4187 H   0  0  0  0  0  0  0  0  0  0  0  0
   -3.0128    7.7943    0.9104 H   0  0  0  0  0  0  0  0  0  0  0  0
   -3.9649    6.6025    1.7867 H   0  0  0  0  0  0  0  0  0  0  0  0
   -4.1885    6.8562   -0.0019 H   0  0  0  0  0  0  0  0  0  0  0  0
   11.2335    1.7777    0.1512 H   0  0  0  0  0  0  0  0  0  0  0  0
    9.8052    2.8052    0.1024 H   0  0  0  0  0  0  0  0  0  0  0  0
   10.3421    1.8717   -1.3637 H   0  0  0  0  0  0  0  0  0  0  0  0
  1 23  1  0  0  0  0
  1 35  1  0  0  0  0
  2 24  1  0  0  0  0
  2 37  1  0  0  0  0
  3 28  2  0  0  0  0
  4 34  1  0  0  0  0
  4 39  1  0  0  0  0
  5  9  1  0  0  0  0
  5 13  1  0  0  0  0
  5 40  1  0  0  0  0
  6  9  2  0  0  0  0
  6 11  1  0  0  0  0
  7 10  1  0  0  0  0
  7 11  2  0  0  0  0
  8  9  1  0  0  0  0
  8 10  1  0  0  0  0
  8 14  2  0  0  0  0
 10 15  2  0  0  0  0
 11 12  1  0  0  0  0
 12 16  2  0  0  0  0
 12 17  1  0  0  0  0
 13 19  2  0  0  0  0
 13 20  1  0  0  0  0
 14 18  1  0  0  0  0
 14 41  1  0  0  0  0
 15 21  1  0  0  0  0
 15 42  1  0  0  0  0
 16 23  1  0  0  0  0
 16 43  1  0  0  0  0
 17 27  2  0  0  0  0
 17 44  1  0  0  0  0
 18 21  2  0  0  0  0
 18 45  1  0  0  0  0
 19 25  1  0  0  0  0
 19 46  1  0  0  0  0
 20 26  2  0  0  0  0
 20 47  1  0  0  0  0
 21 48  1  0  0  0  0
 22 25  2  0  0  0  0
 22 26  1  0  0  0  0
 22 28  1  0  0  0  0
 23 24  2  0  0  0  0
 24 27  1  0  0  0  0
 25 49  1  0  0  0  0
 26 50  1  0  0  0  0
 27 51  1  0  0  0  0
 28 29  1  0  0  0  0
 29 31  2  0  0  0  0
 29 52  1  0  0  0  0
 30 31  1  0  0  0  0
 30 32  2  0  0  0  0
 30 33  1  0  0  0  0
 31 53  1  0  0  0  0
 32 34  1  0  0  0  0
 32 54  1  0  0  0  0
 33 36  2  0  0  0  0
 33 55  1  0  0  0  0
 34 38  2  0  0  0  0
 35 56  1  0  0  0  0
 35 57  1  0  0  0  0
 35 58  1  0  0  0  0
 36 38  1  0  0  0  0
 36 59  1  0  0  0  0
 37 61  1  0  0  0  0
 37 62  1  0  0  0  0
 37 63  1  0  0  0  0
 38 60  1  0  0  0  0
 39 64  1  0  0  0  0
 39 65  1  0  0  0  0
 39 66  1  0  0  0  0
M  END
> <PUBCHEM_COMPOUND_CID>
127044913

> <PUBCHEM_CONFORMER_RMSD>
1

> <PUBCHEM_CONFORMER_DIVERSEORDER>
2
99
175
142
104
132
83
138
200
125
155
127
135
121
90
52
194
31
69
108
150
126
187
40
209
195
147
71
149
140
86
141
98
111
94
148
46
177
115
151
79
173
188
131
163
123
91
68
51
37
207
154
93
105
60
114
192
43
12
27
54
212
179
117
113
198
75
146
70
81
57
78
185
87
129
211
74
102
64
17
182
63
120
124
133
73
67
5
162
143
76
82
172
186
202
41
112
122
176
193
66
55
171
65
196
21
33
53
136
36
160
110
35
77
62
180
34
183
119
145
32
101
184
48
153
161
96
213
42
118
205
85
100
4
191
152
11
10
130
156
139
208
14
158
95
58
169
178
97
206
199
39
19
107
157
38
16
204
72
144
9
13
201
22
210
116
80
26
56
45
44
166
174
106
189
190
170
89
164
50
30
84
6
1
59
203
7
18
181
61
23
20
8
28
109
29
159
24
92
137
103
88
128
165
25
3
47
134
49
168
15
197
167

> <PUBCHEM_MMFF94_PARTIAL_CHARGES>
55
1 -0.36
10 0.31
11 0.62
13 0.1
14 -0.15
15 -0.15
16 -0.15
17 -0.15
18 -0.15
19 -0.15
2 -0.36
20 -0.15
21 -0.15
22 0.09
23 0.08
24 0.08
25 -0.15
26 -0.15
27 -0.15
28 0.47
29 -0.14
3 -0.57
30 0.03
31 -0.18
32 -0.15
33 -0.15
34 0.08
35 0.28
36 -0.15
37 0.28
38 -0.15
39 0.28
4 -0.36
40 0.4
41 0.15
42 0.15
43 0.15
44 0.15
45 0.15
46 0.15
47 0.15
48 0.15
49 0.15
5 -0.6
50 0.15
51 0.15
52 0.15
53 0.15
54 0.15
55 0.15
59 0.15
6 -0.62
60 0.15
7 -0.62
9 0.41

> <PUBCHEM_EFFECTIVE_ROTOR_COUNT>
9

> <PUBCHEM_PHARMACOPHORE_FEATURES>
12
1 1 acceptor
1 2 acceptor
1 3 acceptor
1 4 acceptor
1 5 donor
3 5 6 9 cation
3 6 7 11 cation
6 12 16 17 23 24 27 rings
6 13 19 20 22 25 26 rings
6 30 32 33 34 36 38 rings
6 6 7 8 9 10 11 rings
6 8 10 14 15 18 21 rings

> <PUBCHEM_HEAVY_ATOM_COUNT>
39

> <PUBCHEM_ATOM_DEF_STEREO_COUNT>
0

> <PUBCHEM_ATOM_UDEF_STEREO_COUNT>
0

> <PUBCHEM_BOND_DEF_STEREO_COUNT>
1

> <PUBCHEM_BOND_UDEF_STEREO_COUNT>
0

> <PUBCHEM_ISOTOPIC_ATOM_COUNT>
0

> <PUBCHEM_COMPONENT_COUNT>
1

> <PUBCHEM_CACTVS_TAUTO_COUNT>
9

> <PUBCHEM_CONFORMER_ID>
07928D3100000002

> <PUBCHEM_MMFF94_ENERGY>
167.0887

> <PUBCHEM_FEATURE_SELFOVERLAP>
61.075

> <PUBCHEM_SHAPE_FINGERPRINT>
10050765 1 18267585698364881118
10190206 1 18408605877013752816
10951579 204 18265918908094258932
11476731 118 18267019634422273384
11477941 20 18200586012269580415
11761917 142 18411696561751263000
14068700 675 18338236071836950293
14068700 686 18201436926674172775
14394314 77 18410016494534837201
14512766 119 18336266721809410908
14932702 115 17986103011891842032
15289351 153 18408600354530167010
15320295 44 18266457599239026066
15347590 135 17822306715966358355
15351339 4 18334569148733392442
15400415 2 17620470208090038361
15968369 153 18128521833940759544
19053607 189 18266731390919996112
19246450 95 9078576835952416191
23191077 185 18337945706626700434
23516275 100 18125146385021758336
3418910 222 18411138065177598563
3918712 181 18334006173474617996
44802255 64 17846502569295648094
44880568 143 18199755748100064478
4561138 5 17388232582310895707
550186 72 18411136926879324573
5776283 40 18339923835724648704
6036956 94 18263084306292496933
6057620 51 18336258024749698915
6058803 2 18046613513636292651
6201320 215 18343014481289597738
6371009 1 18186806915254053182
6673363 416 18340208608692741366
6700243 42 17916324795980206903
99344 41 18336266722580199516

> <PUBCHEM_SHAPE_MULTIPOLES>
764.18
24.39
8.4
1.1
58
12.9
-0.03
1.38
-8.52
-13.48
2.89
-0.04
-0.54
-4.5

> <PUBCHEM_SHAPE_SELFOVERLAP>
1687.095

> <PUBCHEM_SHAPE_VOLUME>
409.7

> <PUBCHEM_COORDINATE_TYPE>
2
5
10

$$$$