162
 OpenBabel03292022013D

143150  0  0  1  0  0  0  0  0999 V2000
    8.3605   10.7217   -7.3582 C   0  0  0  0  0  0  0  0  0  0  0  0
    8.8447    9.4314   -7.9681 C   0  0  0  0  0  0  0  0  0  0  0  0
   10.0106    9.0472   -7.2317 O   0  0  0  0  0  0  0  0  0  0  0  0
   11.1695    9.5948   -7.6746 C   0  0  0  0  0  0  0  0  0  0  0  0
   11.3313   10.0931   -8.7758 O   0  0  0  0  0  0  0  0  0  0  0  0
   12.1616    9.6023   -6.5649 C   0  0  0  0  0  0  0  0  0  0  0  0
   13.1857   10.4888   -6.5307 C   0  0  0  0  0  0  0  0  0  0  0  0
   13.5266   11.5384   -7.5647 C   0  0  0  0  0  0  0  0  0  0  0  0
   14.0512   10.4777   -5.4499 N   0  0  0  0  0  0  0  0  0  0  0  0
   13.8684    9.7547   -4.2852 C   0  0  0  0  0  0  0  0  0  0  0  0
   14.8704   10.0470   -3.1966 C   0  0  0  0  0  0  0  0  0  0  0  0
   12.8734    8.8375   -4.2069 C   0  0  0  0  0  0  0  0  0  0  0  0
   12.5448    8.0548   -2.9749 C   0  0  0  0  0  0  0  0  0  0  0  0
   11.8807    7.0303   -2.9881 O   0  0  0  0  0  0  0  0  0  0  0  0
   13.0197    8.6306   -1.8485 O   0  0  0  0  0  0  0  0  0  0  0  0
   12.8406    7.8936   -0.6208 C   0  0  0  0  0  0  0  0  0  0  0  0
   11.5476    8.1826    0.0344 C   0  0  0  0  0  0  0  0  0  0  0  0
   10.4429    7.3902    0.2961 C   0  0  0  0  0  0  0  0  0  0  0  0
    9.5265    8.2590    0.8180 N   0  0  0  0  0  0  0  0  0  0  0  0
    8.1572    8.0170    1.2166 C   0  0  0  0  0  0  0  0  0  0  0  0
    7.5272    9.0191    2.2037 C   0  0  0  0  0  0  0  0  0  0  0  0
    8.0801    9.0668    3.5212 O   0  0  0  0  0  0  0  0  0  0  0  0
    9.3692    9.6776    3.6905 C   0  0  0  0  0  0  0  0  0  0  0  0
    9.5695   11.0618    3.0542 C   0  0  0  0  0  0  0  0  0  0  0  0
    8.9505   12.1263    3.7742 O   0  0  0  0  0  0  0  0  0  0  0  0
    9.0284   13.3506    3.0288 C   0  0  0  0  0  0  0  0  0  0  0  0
    8.1573   13.3612    1.7608 C   0  0  0  0  0  0  0  0  0  0  0  0
    6.8098   12.9329    1.9625 O   0  0  0  0  0  0  0  0  0  0  0  0
    6.0392   13.6811    2.9085 C   0  0  0  0  0  0  0  0  0  0  0  0
    5.8137   15.1336    2.4998 C   0  0  0  0  0  0  0  0  0  0  0  0
    5.0626   15.2177    1.2663 N   0  0  0  0  0  0  0  0  0  0  0  0
    5.5512   15.1340    0.0028 C   0  0  0  0  0  0  0  0  0  0  0  0
    4.4259   15.1266   -0.7928 C   0  0  0  0  0  0  0  0  0  0  0  0
    4.3349   14.9657   -2.2685 C   0  0  0  0  0  0  0  0  0  0  0  0
    5.6491   14.7625   -2.8181 O   0  0  0  0  0  0  0  0  0  0  0  0
    6.3147   15.9018   -3.1444 C   0  0  0  0  0  0  0  0  0  0  0  0
    5.7890   16.9633   -3.3997 O   0  0  0  0  0  0  0  0  0  0  0  0
    7.7833   15.6649   -2.9792 C   0  0  0  0  0  0  0  0  0  0  0  0
    8.6662   16.6539   -2.7002 C   0  0  0  0  0  0  0  0  0  0  0  0
    8.3629   18.1274   -2.6072 C   0  0  0  0  0  0  0  0  0  0  0  0
    9.9989   16.3299   -2.4692 N   0  0  0  0  0  0  0  0  0  0  0  0
   10.5152   15.0484   -2.4166 C   0  0  0  0  0  0  0  0  0  0  0  0
   11.9685   14.9458   -2.0229 C   0  0  0  0  0  0  0  0  0  0  0  0
    9.7246   13.9999   -2.7434 C   0  0  0  0  0  0  0  0  0  0  0  0
   10.2281   12.5970   -2.7065 C   0  0  0  0  0  0  0  0  0  0  0  0
   11.3599   12.2466   -2.4201 O   0  0  0  0  0  0  0  0  0  0  0  0
    9.2293   11.7819   -3.1112 O   0  0  0  0  0  0  0  0  0  0  0  0
    9.5611   10.4301   -3.4223 C   0  0  0  0  0  0  0  0  0  0  0  0
    9.2704    9.5655   -2.2338 C   0  0  0  0  0  0  0  0  0  0  0  0
    8.2722   14.2255   -3.1858 C   0  0  3  0  0  0  0  0  0  0  0  0
    8.0657   13.9006   -4.6506 C   0  0  0  0  0  0  0  0  0  0  0  0
    7.0788   13.0731   -5.3080 C   0  0  0  0  0  0  0  0  0  0  0  0
    6.1200   12.0381   -4.8436 C   0  0  0  0  0  0  0  0  0  0  0  0
    5.1645   11.5316   -5.7518 C   0  0  0  0  0  0  0  0  0  0  0  0
    4.3230   10.4597   -5.4277 C   0  0  0  0  0  0  0  0  0  0  0  0
    4.4206    9.8659   -4.1779 C   0  0  0  0  0  0  0  0  0  0  0  0
    3.2862    8.4280   -3.7209 Br  0  0  0  0  0  0  0  0  0  0  0  0
    5.3508   10.3359   -3.2593 C   0  0  0  0  0  0  0  0  0  0  0  0
    6.1823   11.4188   -3.5890 C   0  0  0  0  0  0  0  0  0  0  0  0
    7.1131   13.3415   -6.6271 N   0  0  0  0  0  0  0  0  0  0  0  0
    8.1938   14.1342   -6.8674 O   0  0  0  0  0  0  0  0  0  0  0  0
    8.7838   14.4590   -5.7005 C   0  0  0  0  0  0  0  0  0  0  0  0
    9.9617   15.3440   -5.8202 C   0  0  0  0  0  0  0  0  0  0  0  0
    3.3194   15.2652    0.0032 N   0  0  0  0  0  0  0  0  0  0  0  0
    3.7256   15.3291    1.2683 N   0  0  0  0  0  0  0  0  0  0  0  0
   10.0233    9.4960    0.8198 N   0  0  0  0  0  0  0  0  0  0  0  0
   11.2851    9.4546    0.4518 N   0  0  0  0  0  0  0  0  0  0  0  0
   11.9854    8.5579   -5.4427 C   0  0  3  0  0  0  0  0  0  0  0  0
   12.2275    7.1713   -5.9959 C   0  0  0  0  0  0  0  0  0  0  0  0
   11.3216    6.0616   -6.1828 C   0  0  0  0  0  0  0  0  0  0  0  0
    9.8830    5.9027   -5.9057 C   0  0  0  0  0  0  0  0  0  0  0  0
    9.0999    5.0878   -6.7443 C   0  0  0  0  0  0  0  0  0  0  0  0
    7.7398    4.8726   -6.4900 C   0  0  0  0  0  0  0  0  0  0  0  0
    7.1408    5.4787   -5.3919 C   0  0  0  0  0  0  0  0  0  0  0  0
    5.3119    5.1772   -5.0314 Br  0  0  0  0  0  0  0  0  0  0  0  0
    7.8906    6.2890   -4.5467 C   0  0  0  0  0  0  0  0  0  0  0  0
    9.2544    6.4877   -4.8014 C   0  0  0  0  0  0  0  0  0  0  0  0
   11.9800    5.0322   -6.7465 N   0  0  0  0  0  0  0  0  0  0  0  0
   13.2715    5.4360   -6.9492 O   0  0  0  0  0  0  0  0  0  0  0  0
   13.4234    6.7077   -6.5190 C   0  0  0  0  0  0  0  0  0  0  0  0
   14.7612    7.2999   -6.7244 C   0  0  0  0  0  0  0  0  0  0  0  0
    7.4599   11.0762   -7.8607 H   0  0  0  0  0  0  0  0  0  0  0  0
    9.1336   11.4975   -7.4051 H   0  0  0  0  0  0  0  0  0  0  0  0
    8.1486   10.5631   -6.2977 H   0  0  0  0  0  0  0  0  0  0  0  0
    9.0357    9.5467   -9.0402 H   0  0  0  0  0  0  0  0  0  0  0  0
    8.0875    8.6522   -7.8417 H   0  0  0  0  0  0  0  0  0  0  0  0
   12.7641   11.7235   -8.3185 H   0  0  0  0  0  0  0  0  0  0  0  0
   14.4510   11.2541   -8.0807 H   0  0  0  0  0  0  0  0  0  0  0  0
   13.7011   12.5029   -7.0734 H   0  0  0  0  0  0  0  0  0  0  0  0
   14.7806   11.1878   -5.4442 H   0  0  0  0  0  0  0  0  0  0  0  0
   15.7398   10.5852   -3.5908 H   0  0  0  0  0  0  0  0  0  0  0  0
   15.2614    9.1227   -2.7597 H   0  0  0  0  0  0  0  0  0  0  0  0
   14.4257   10.6750   -2.4185 H   0  0  0  0  0  0  0  0  0  0  0  0
   13.6443    8.2271    0.0458 H   0  0  0  0  0  0  0  0  0  0  0  0
   12.9874    6.8208   -0.7824 H   0  0  0  0  0  0  0  0  0  0  0  0
   10.2301    6.3467    0.1182 H   0  0  0  0  0  0  0  0  0  0  0  0
    8.1145    7.0045    1.6270 H   0  0  0  0  0  0  0  0  0  0  0  0
    7.5704    8.0372    0.2873 H   0  0  0  0  0  0  0  0  0  0  0  0
    6.4901    8.6906    2.3522 H   0  0  0  0  0  0  0  0  0  0  0  0
    7.4342   10.0220    1.7771 H   0  0  0  0  0  0  0  0  0  0  0  0
   10.1195    8.9749    3.3135 H   0  0  0  0  0  0  0  0  0  0  0  0
    9.5397    9.7521    4.7682 H   0  0  0  0  0  0  0  0  0  0  0  0
    9.1412   11.0790    2.0621 H   0  0  0  0  0  0  0  0  0  0  0  0
   10.6424   11.2734    2.9753 H   0  0  0  0  0  0  0  0  0  0  0  0
   10.0713   13.5643    2.7636 H   0  0  0  0  0  0  0  0  0  0  0  0
    8.7017   14.1471    3.7025 H   0  0  0  0  0  0  0  0  0  0  0  0
    8.5703   12.6946    0.9961 H   0  0  0  0  0  0  0  0  0  0  0  0
    8.1766   14.3539    1.3035 H   0  0  0  0  0  0  0  0  0  0  0  0
    6.5102   13.6253    3.8949 H   0  0  0  0  0  0  0  0  0  0  0  0
    5.0737   13.1699    2.9980 H   0  0  0  0  0  0  0  0  0  0  0  0
    6.7592   15.6614    2.3380 H   0  0  0  0  0  0  0  0  0  0  0  0
    5.2589   15.6756    3.2717 H   0  0  0  0  0  0  0  0  0  0  0  0
    6.6012   15.0328   -0.2179 H   0  0  0  0  0  0  0  0  0  0  0  0
    3.8202   15.8135   -2.7320 H   0  0  0  0  0  0  0  0  0  0  0  0
    3.7516   14.0670   -2.4996 H   0  0  0  0  0  0  0  0  0  0  0  0
    7.3068   18.3867   -2.6199 H   0  0  0  0  0  0  0  0  0  0  0  0
    8.8413   18.6472   -3.4457 H   0  0  0  0  0  0  0  0  0  0  0  0
    8.7717   18.5358   -1.6770 H   0  0  0  0  0  0  0  0  0  0  0  0
   10.6381   17.1073   -2.3094 H   0  0  0  0  0  0  0  0  0  0  0  0
   12.4334   15.9346   -1.9505 H   0  0  0  0  0  0  0  0  0  0  0  0
   12.5448   14.3901   -2.7693 H   0  0  0  0  0  0  0  0  0  0  0  0
   12.0681   14.4690   -1.0426 H   0  0  0  0  0  0  0  0  0  0  0  0
   10.6066   10.3551   -3.7182 H   0  0  0  0  0  0  0  0  0  0  0  0
    8.9425   10.1176   -4.2634 H   0  0  0  0  0  0  0  0  0  0  0  0
    9.9580    9.8938   -1.4682 H   0  0  0  0  0  0  0  0  0  0  0  0
    9.4377    8.5071   -2.4346 H   0  0  0  0  0  0  0  0  0  0  0  0
    8.2591    9.7029   -1.8414 H   0  0  0  0  0  0  0  0  0  0  0  0
    7.6614   13.5919   -2.5367 H   0  0  0  0  0  0  0  0  0  0  0  0
    5.0822   11.9510   -6.7544 H   0  0  0  0  0  0  0  0  0  0  0  0
    3.6114   10.0965   -6.1647 H   0  0  0  0  0  0  0  0  0  0  0  0
    5.4482    9.8637   -2.2846 H   0  0  0  0  0  0  0  0  0  0  0  0
    6.8940   11.7197   -2.8345 H   0  0  0  0  0  0  0  0  0  0  0  0
   10.3057   15.4054   -6.8574 H   0  0  0  0  0  0  0  0  0  0  0  0
   10.8027   14.9668   -5.2320 H   0  0  0  0  0  0  0  0  0  0  0  0
    9.7205   16.3568   -5.4878 H   0  0  0  0  0  0  0  0  0  0  0  0
   10.9535    8.6411   -5.0940 H   0  0  0  0  0  0  0  0  0  0  0  0
    9.5520    4.5933   -7.6032 H   0  0  0  0  0  0  0  0  0  0  0  0
    7.1691    4.2222   -7.1470 H   0  0  0  0  0  0  0  0  0  0  0  0
    7.4341    6.7522   -3.6759 H   0  0  0  0  0  0  0  0  0  0  0  0
    9.8188    7.0748   -4.0921 H   0  0  0  0  0  0  0  0  0  0  0  0
   15.4531    6.5795   -7.1669 H   0  0  0  0  0  0  0  0  0  0  0  0
   15.1899    7.6321   -5.7750 H   0  0  0  0  0  0  0  0  0  0  0  0
   14.7032    8.1579   -7.4018 H   0  0  0  0  0  0  0  0  0  0  0  0
  1  2  1  0  0  0  0
  1 82  1  0  0  0  0
  1 83  1  0  0  0  0
  1 84  1  0  0  0  0
  2  3  1  0  0  0  0
  2 85  1  0  0  0  0
  2 86  1  0  0  0  0
  3  4  1  0  0  0  0
  4  5  2  0  0  0  0
  4  6  1  0  0  0  0
  6  7  2  0  0  0  0
  6 68  1  0  0  0  0
  7  8  1  0  0  0  0
  7  9  1  0  0  0  0
  8 87  1  0  0  0  0
  8 88  1  0  0  0  0
  8 89  1  0  0  0  0
  9 10  1  0  0  0  0
  9 90  1  0  0  0  0
 10 11  1  0  0  0  0
 10 12  2  0  0  0  0
 11 91  1  0  0  0  0
 11 92  1  0  0  0  0
 11 93  1  0  0  0  0
 12 13  1  0  0  0  0
 12 68  1  0  0  0  0
 13 14  2  0  0  0  0
 13 15  1  0  0  0  0
 15 16  1  0  0  0  0
 16 17  1  0  0  0  0
 16 94  1  0  0  0  0
 16 95  1  0  0  0  0
 17 18  2  0  0  0  0
 17 67  1  0  0  0  0
 18 19  1  0  0  0  0
 18 96  1  0  0  0  0
 19 20  1  0  0  0  0
 19 66  1  0  0  0  0
 20 21  1  0  0  0  0
 20 97  1  0  0  0  0
 20 98  1  0  0  0  0
 21 22  1  0  0  0  0
 21 99  1  0  0  0  0
 21100  1  0  0  0  0
 22 23  1  0  0  0  0
 23 24  1  0  0  0  0
 23101  1  0  0  0  0
 23102  1  0  0  0  0
 24 25  1  0  0  0  0
 24103  1  0  0  0  0
 24104  1  0  0  0  0
 25 26  1  0  0  0  0
 26 27  1  0  0  0  0
 26105  1  0  0  0  0
 26106  1  0  0  0  0
 27 28  1  0  0  0  0
 27107  1  0  0  0  0
 27108  1  0  0  0  0
 28 29  1  0  0  0  0
 29 30  1  0  0  0  0
 29109  1  0  0  0  0
 29110  1  0  0  0  0
 30 31  1  0  0  0  0
 30111  1  0  0  0  0
 30112  1  0  0  0  0
 31 32  1  0  0  0  0
 31 65  1  0  0  0  0
 32 33  2  0  0  0  0
 32113  1  0  0  0  0
 33 34  1  0  0  0  0
 33 64  1  0  0  0  0
 34 35  1  0  0  0  0
 34114  1  0  0  0  0
 34115  1  0  0  0  0
 35 36  1  0  0  0  0
 36 37  2  0  0  0  0
 36 38  1  0  0  0  0
 38 39  2  0  0  0  0
 38 50  1  0  0  0  0
 39 40  1  0  0  0  0
 39 41  1  0  0  0  0
 40116  1  0  0  0  0
 40117  1  0  0  0  0
 40118  1  0  0  0  0
 41 42  1  0  0  0  0
 41119  1  0  0  0  0
 42 43  1  0  0  0  0
 42 44  2  0  0  0  0
 43120  1  0  0  0  0
 43121  1  0  0  0  0
 43122  1  0  0  0  0
 44 45  1  0  0  0  0
 44 50  1  0  0  0  0
 45 46  2  0  0  0  0
 45 47  1  0  0  0  0
 47 48  1  0  0  0  0
 48 49  1  0  0  0  0
 48123  1  0  0  0  0
 48124  1  0  0  0  0
 49125  1  0  0  0  0
 49126  1  0  0  0  0
 49127  1  0  0  0  0
 50 51  1  0  0  0  0
 50128  1  0  0  0  0
 51 52  1  0  0  0  0
 51 62  2  0  0  0  0
 52 53  1  0  0  0  0
 52 60  2  0  0  0  0
 53 54  1  0  0  0  0
 53 59  2  0  0  0  0
 54 55  2  0  0  0  0
 54129  1  0  0  0  0
 55 56  1  0  0  0  0
 55130  1  0  0  0  0
 56 57  1  0  0  0  0
 56 58  2  0  0  0  0
 58 59  1  0  0  0  0
 58131  1  0  0  0  0
 59132  1  0  0  0  0
 60 61  1  0  0  0  0
 61 62  1  0  0  0  0
 62 63  1  0  0  0  0
 63133  1  0  0  0  0
 63134  1  0  0  0  0
 63135  1  0  0  0  0
 64 65  2  0  0  0  0
 66 67  2  0  0  0  0
 68 69  1  0  0  0  0
 68136  1  0  0  0  0
 69 70  1  0  0  0  0
 69 80  2  0  0  0  0
 70 71  1  0  0  0  0
 70 78  2  0  0  0  0
 71 72  1  0  0  0  0
 71 77  2  0  0  0  0
 72 73  2  0  0  0  0
 72137  1  0  0  0  0
 73 74  1  0  0  0  0
 73138  1  0  0  0  0
 74 75  1  0  0  0  0
 74 76  2  0  0  0  0
 76 77  1  0  0  0  0
 76139  1  0  0  0  0
 77140  1  0  0  0  0
 78 79  1  0  0  0  0
 79 80  1  0  0  0  0
 80 81  1  0  0  0  0
 81141  1  0  0  0  0
 81142  1  0  0  0  0
 81143  1  0  0  0  0
M  END
>  <Energy>
111.075

$$$$