163
 OpenBabel03292022013D

157164  0  0  1  0  0  0  0  0999 V2000
   17.0699    3.2290   -5.2313 C   0  0  0  0  0  0  0  0  0  0  0  0
   15.6596    3.0353   -4.7108 C   0  0  0  0  0  0  0  0  0  0  0  0
   14.8108    4.1397   -5.0730 O   0  0  0  0  0  0  0  0  0  0  0  0
   13.8833    3.8831   -6.0286 C   0  0  0  0  0  0  0  0  0  0  0  0
   13.8479    2.8657   -6.7037 O   0  0  0  0  0  0  0  0  0  0  0  0
   12.8324    4.9368   -6.0523 C   0  0  0  0  0  0  0  0  0  0  0  0
   11.9953    5.0726   -7.1169 C   0  0  0  0  0  0  0  0  0  0  0  0
   12.1405    4.4215   -8.4694 C   0  0  0  0  0  0  0  0  0  0  0  0
   10.8686    5.8653   -7.0016 N   0  0  0  0  0  0  0  0  0  0  0  0
   10.3381    6.2870   -5.7902 C   0  0  0  0  0  0  0  0  0  0  0  0
    8.9360    6.8422   -5.8478 C   0  0  0  0  0  0  0  0  0  0  0  0
   11.0979    6.2114   -4.6649 C   0  0  0  0  0  0  0  0  0  0  0  0
   10.4829    6.5643   -3.3563 C   0  0  0  0  0  0  0  0  0  0  0  0
    9.2822    6.5620   -3.1412 O   0  0  0  0  0  0  0  0  0  0  0  0
   11.4224    6.9194   -2.4583 O   0  0  0  0  0  0  0  0  0  0  0  0
   10.9150    7.3380   -1.1779 C   0  0  0  0  0  0  0  0  0  0  0  0
   11.3328    6.4244   -0.0896 C   0  0  0  0  0  0  0  0  0  0  0  0
   11.8944    6.7164    1.1342 C   0  0  0  0  0  0  0  0  0  0  0  0
   11.9593    5.5071    1.7554 N   0  0  0  0  0  0  0  0  0  0  0  0
   12.3321    5.2374    3.1211 C   0  0  0  0  0  0  0  0  0  0  0  0
   11.1757    4.6473    3.9308 C   0  0  0  0  0  0  0  0  0  0  0  0
   10.7363    3.3468    3.5292 O   0  0  0  0  0  0  0  0  0  0  0  0
   11.7387    2.3341    3.4491 C   0  0  0  0  0  0  0  0  0  0  0  0
   12.3229    2.0352    4.8141 C   0  0  0  0  0  0  0  0  0  0  0  0
   13.3805    1.0858    4.7183 O   0  0  0  0  0  0  0  0  0  0  0  0
   13.9422    0.9207    6.0129 C   0  0  0  0  0  0  0  0  0  0  0  0
   15.1641    0.0211    5.9925 C   0  0  0  0  0  0  0  0  0  0  0  0
   15.6462   -0.1786    7.3201 O   0  0  0  0  0  0  0  0  0  0  0  0
   16.1840    1.0114    7.9100 C   0  0  0  0  0  0  0  0  0  0  0  0
   16.6589    0.6921    9.3148 C   0  0  0  0  0  0  0  0  0  0  0  0
   17.7691   -0.1852    9.2072 O   0  0  0  0  0  0  0  0  0  0  0  0
   18.2323   -0.6009   10.4814 C   0  0  0  0  0  0  0  0  0  0  0  0
   19.3460   -1.5913   10.2256 C   0  0  0  0  0  0  0  0  0  0  0  0
   19.9972   -1.9138   11.4491 O   0  0  0  0  0  0  0  0  0  0  0  0
   21.0136   -2.8994   11.2762 C   0  0  0  0  0  0  0  0  0  0  0  0
   22.1897   -2.3790   10.4574 C   0  0  0  0  0  0  0  0  0  0  0  0
   23.1883   -3.3978   10.2717 N   0  0  0  0  0  0  0  0  0  0  0  0
   23.2686   -4.3080    9.2625 C   0  0  0  0  0  0  0  0  0  0  0  0
   24.3940   -5.0388    9.5749 C   0  0  0  0  0  0  0  0  0  0  0  0
   25.0579   -6.1447    8.8353 C   0  0  0  0  0  0  0  0  0  0  0  0
   26.3825   -5.7260    8.4304 O   0  0  0  0  0  0  0  0  0  0  0  0
   26.4451   -5.1478    7.2191 C   0  0  0  0  0  0  0  0  0  0  0  0
   25.6060   -5.2637    6.3406 O   0  0  0  0  0  0  0  0  0  0  0  0
   27.6362   -4.2477    7.1623 C   0  0  0  0  0  0  0  0  0  0  0  0
   27.6947   -3.1820    6.3218 C   0  0  0  0  0  0  0  0  0  0  0  0
   26.6938   -2.7912    5.2577 C   0  0  0  0  0  0  0  0  0  0  0  0
   28.7566   -2.2997    6.4148 N   0  0  0  0  0  0  0  0  0  0  0  0
   29.6777   -2.2698    7.4425 C   0  0  0  0  0  0  0  0  0  0  0  0
   30.6027   -1.0797    7.4466 C   0  0  0  0  0  0  0  0  0  0  0  0
   29.7181   -3.2844    8.3440 C   0  0  0  0  0  0  0  0  0  0  0  0
   30.7299   -3.2670    9.4445 C   0  0  0  0  0  0  0  0  0  0  0  0
   31.7516   -2.5983    9.4334 O   0  0  0  0  0  0  0  0  0  0  0  0
   30.3895   -4.1139   10.4445 O   0  0  0  0  0  0  0  0  0  0  0  0
   31.4353   -4.4381   11.3827 C   0  0  0  0  0  0  0  0  0  0  0  0
   31.1359   -3.8767   12.7593 C   0  0  0  0  0  0  0  0  0  0  0  0
   28.7872   -4.5040    8.1684 C   0  0  3  0  0  0  0  0  0  0  0  0
   29.6027   -5.7230    7.7450 C   0  0  0  0  0  0  0  0  0  0  0  0
   29.7919   -7.0316    8.3624 C   0  0  0  0  0  0  0  0  0  0  0  0
   29.2199   -7.6708    9.5745 C   0  0  0  0  0  0  0  0  0  0  0  0
   28.8164   -6.8776   10.6608 C   0  0  0  0  0  0  0  0  0  0  0  0
   28.2941   -7.4138   11.8428 C   0  0  0  0  0  0  0  0  0  0  0  0
   28.1506   -8.7829   11.9768 C   0  0  0  0  0  0  0  0  0  0  0  0
   28.5464   -9.6089   10.9320 C   0  0  0  0  0  0  0  0  0  0  0  0
   29.0793   -9.0704    9.7435 C   0  0  0  0  0  0  0  0  0  0  0  0
   29.5379  -10.3937    8.4439 Br  0  0  0  0  0  0  0  0  0  0  0  0
   30.7100   -7.7114    7.6552 N   0  0  0  0  0  0  0  0  0  0  0  0
   31.0278   -6.9786    6.5564 O   0  0  0  0  0  0  0  0  0  0  0  0
   30.3799   -5.7979    6.5925 C   0  0  0  0  0  0  0  0  0  0  0  0
   30.6657   -4.9061    5.4475 C   0  0  0  0  0  0  0  0  0  0  0  0
   24.9348   -4.5503   10.7384 N   0  0  0  0  0  0  0  0  0  0  0  0
   24.1835   -3.5434   11.1560 N   0  0  0  0  0  0  0  0  0  0  0  0
   11.5902    4.5149    0.9286 N   0  0  0  0  0  0  0  0  0  0  0  0
   11.1578    5.0693   -0.1928 N   0  0  0  0  0  0  0  0  0  0  0  0
   12.5568    5.7158   -4.7460 C   0  0  3  0  0  0  0  0  0  0  0  0
   13.5193    6.8909   -4.5711 C   0  0  0  0  0  0  0  0  0  0  0  0
   14.5500    7.1614   -3.5692 C   0  0  0  0  0  0  0  0  0  0  0  0
   15.1009    6.3661   -2.4402 C   0  0  0  0  0  0  0  0  0  0  0  0
   14.3027    5.4013   -1.8034 C   0  0  0  0  0  0  0  0  0  0  0  0
   14.7781    4.5983   -0.7575 C   0  0  0  0  0  0  0  0  0  0  0  0
   16.0757    4.7448   -0.2986 C   0  0  0  0  0  0  0  0  0  0  0  0
   16.8867    5.7146   -0.8720 C   0  0  0  0  0  0  0  0  0  0  0  0
   16.4131    6.5253   -1.9235 C   0  0  0  0  0  0  0  0  0  0  0  0
   17.7019    7.8004   -2.5297 Br  0  0  0  0  0  0  0  0  0  0  0  0
   15.0184    8.4058   -3.7599 N   0  0  0  0  0  0  0  0  0  0  0  0
   14.4591    8.8995   -4.8941 O   0  0  0  0  0  0  0  0  0  0  0  0
   13.5697    8.0158   -5.3882 C   0  0  0  0  0  0  0  0  0  0  0  0
   12.8792    8.4673   -6.6142 C   0  0  0  0  0  0  0  0  0  0  0  0
   17.7219    2.4306   -4.8608 H   0  0  0  0  0  0  0  0  0  0  0  0
   17.4784    4.1919   -4.9102 H   0  0  0  0  0  0  0  0  0  0  0  0
   17.0914    3.2121   -6.3253 H   0  0  0  0  0  0  0  0  0  0  0  0
   15.6765    3.0010   -3.6172 H   0  0  0  0  0  0  0  0  0  0  0  0
   15.2602    2.0722   -5.0486 H   0  0  0  0  0  0  0  0  0  0  0  0
   13.0463    3.8294   -8.6080 H   0  0  0  0  0  0  0  0  0  0  0  0
   12.1511    5.1888   -9.2454 H   0  0  0  0  0  0  0  0  0  0  0  0
   11.2780    3.7641   -8.6582 H   0  0  0  0  0  0  0  0  0  0  0  0
   10.2101    5.8173   -7.7818 H   0  0  0  0  0  0  0  0  0  0  0  0
    8.5861    6.9446   -6.8828 H   0  0  0  0  0  0  0  0  0  0  0  0
    8.8946    7.8415   -5.4058 H   0  0  0  0  0  0  0  0  0  0  0  0
    8.2282    6.1791   -5.3407 H   0  0  0  0  0  0  0  0  0  0  0  0
    9.8237    7.4299   -1.1507 H   0  0  0  0  0  0  0  0  0  0  0  0
   11.3165    8.3394   -0.9920 H   0  0  0  0  0  0  0  0  0  0  0  0
   12.1986    7.6403    1.6026 H   0  0  0  0  0  0  0  0  0  0  0  0
   12.6392    6.1875    3.5748 H   0  0  0  0  0  0  0  0  0  0  0  0
   13.2138    4.5891    3.0988 H   0  0  0  0  0  0  0  0  0  0  0  0
   10.3012    5.3043    3.8561 H   0  0  0  0  0  0  0  0  0  0  0  0
   11.4372    4.6217    4.9940 H   0  0  0  0  0  0  0  0  0  0  0  0
   12.5223    2.5952    2.7305 H   0  0  0  0  0  0  0  0  0  0  0  0
   11.2717    1.4281    3.0479 H   0  0  0  0  0  0  0  0  0  0  0  0
   11.5372    1.6635    5.4820 H   0  0  0  0  0  0  0  0  0  0  0  0
   12.7228    2.9547    5.2554 H   0  0  0  0  0  0  0  0  0  0  0  0
   13.1921    0.5117    6.7007 H   0  0  0  0  0  0  0  0  0  0  0  0
   14.2255    1.9101    6.3855 H   0  0  0  0  0  0  0  0  0  0  0  0
   15.9551    0.4261    5.3501 H   0  0  0  0  0  0  0  0  0  0  0  0
   14.8955   -0.9566    5.5775 H   0  0  0  0  0  0  0  0  0  0  0  0
   15.4136    1.7806    7.9974 H   0  0  0  0  0  0  0  0  0  0  0  0
   17.0094    1.3776    7.2898 H   0  0  0  0  0  0  0  0  0  0  0  0
   15.8577    0.2050    9.8819 H   0  0  0  0  0  0  0  0  0  0  0  0
   16.9698    1.6107    9.8230 H   0  0  0  0  0  0  0  0  0  0  0  0
   17.4291   -1.0708   11.0603 H   0  0  0  0  0  0  0  0  0  0  0  0
   18.6054    0.2627   11.0434 H   0  0  0  0  0  0  0  0  0  0  0  0
   20.0498   -1.1304    9.5252 H   0  0  0  0  0  0  0  0  0  0  0  0
   18.9462   -2.4942    9.7475 H   0  0  0  0  0  0  0  0  0  0  0  0
   20.5774   -3.8016   10.8285 H   0  0  0  0  0  0  0  0  0  0  0  0
   21.3568   -3.1816   12.2788 H   0  0  0  0  0  0  0  0  0  0  0  0
   22.6469   -1.5075   10.9396 H   0  0  0  0  0  0  0  0  0  0  0  0
   21.8840   -2.0550    9.4576 H   0  0  0  0  0  0  0  0  0  0  0  0
   22.5656   -4.3495    8.4426 H   0  0  0  0  0  0  0  0  0  0  0  0
   24.4515   -6.4804    7.9906 H   0  0  0  0  0  0  0  0  0  0  0  0
   25.1763   -7.0024    9.5054 H   0  0  0  0  0  0  0  0  0  0  0  0
   25.7753   -3.3715    5.2294 H   0  0  0  0  0  0  0  0  0  0  0  0
   27.1646   -2.8728    4.2702 H   0  0  0  0  0  0  0  0  0  0  0  0
   26.3942   -1.7465    5.3981 H   0  0  0  0  0  0  0  0  0  0  0  0
   28.7496   -1.5047    5.7800 H   0  0  0  0  0  0  0  0  0  0  0  0
   30.4159   -0.4217    6.5905 H   0  0  0  0  0  0  0  0  0  0  0  0
   31.6506   -1.3902    7.3623 H   0  0  0  0  0  0  0  0  0  0  0  0
   30.4639   -0.4781    8.3553 H   0  0  0  0  0  0  0  0  0  0  0  0
   32.4197   -4.1014   11.0424 H   0  0  0  0  0  0  0  0  0  0  0  0
   31.4793   -5.5303   11.4413 H   0  0  0  0  0  0  0  0  0  0  0  0
   30.9915   -2.7929   12.7253 H   0  0  0  0  0  0  0  0  0  0  0  0
   31.9608   -4.0999   13.4448 H   0  0  0  0  0  0  0  0  0  0  0  0
   30.2213   -4.3161   13.1702 H   0  0  0  0  0  0  0  0  0  0  0  0
   28.3131   -4.6526    9.1395 H   0  0  0  0  0  0  0  0  0  0  0  0
   28.9125   -5.8051   10.6432 H   0  0  0  0  0  0  0  0  0  0  0  0
   28.0063   -6.7482   12.6538 H   0  0  0  0  0  0  0  0  0  0  0  0
   27.7381   -9.2053   12.8885 H   0  0  0  0  0  0  0  0  0  0  0  0
   28.4372  -10.6853   11.0497 H   0  0  0  0  0  0  0  0  0  0  0  0
   31.3264   -5.3919    4.7219 H   0  0  0  0  0  0  0  0  0  0  0  0
   31.1677   -3.9932    5.7770 H   0  0  0  0  0  0  0  0  0  0  0  0
   29.7471   -4.6414    4.9169 H   0  0  0  0  0  0  0  0  0  0  0  0
   12.6707    4.9873   -3.9414 H   0  0  0  0  0  0  0  0  0  0  0  0
   13.2654    5.2561   -2.0711 H   0  0  0  0  0  0  0  0  0  0  0  0
   14.1140    3.8661   -0.3016 H   0  0  0  0  0  0  0  0  0  0  0  0
   16.4505    4.1188    0.5061 H   0  0  0  0  0  0  0  0  0  0  0  0
   17.8998    5.8389   -0.4936 H   0  0  0  0  0  0  0  0  0  0  0  0
   13.2809    9.4237   -6.9651 H   0  0  0  0  0  0  0  0  0  0  0  0
   11.8132    8.6163   -6.4278 H   0  0  0  0  0  0  0  0  0  0  0  0
   13.0098    7.7482   -7.4264 H   0  0  0  0  0  0  0  0  0  0  0  0
  1  2  1  0  0  0  0
  1 88  1  0  0  0  0
  1 89  1  0  0  0  0
  1 90  1  0  0  0  0
  2  3  1  0  0  0  0
  2 91  1  0  0  0  0
  2 92  1  0  0  0  0
  3  4  1  0  0  0  0
  4  5  2  0  0  0  0
  4  6  1  0  0  0  0
  6  7  2  0  0  0  0
  6 74  1  0  0  0  0
  7  8  1  0  0  0  0
  7  9  1  0  0  0  0
  8 93  1  0  0  0  0
  8 94  1  0  0  0  0
  8 95  1  0  0  0  0
  9 10  1  0  0  0  0
  9 96  1  0  0  0  0
 10 11  1  0  0  0  0
 10 12  2  0  0  0  0
 11 97  1  0  0  0  0
 11 98  1  0  0  0  0
 11 99  1  0  0  0  0
 12 13  1  0  0  0  0
 12 74  1  0  0  0  0
 13 14  2  0  0  0  0
 13 15  1  0  0  0  0
 15 16  1  0  0  0  0
 16 17  1  0  0  0  0
 16100  1  0  0  0  0
 16101  1  0  0  0  0
 17 18  2  0  0  0  0
 17 73  1  0  0  0  0
 18 19  1  0  0  0  0
 18102  1  0  0  0  0
 19 20  1  0  0  0  0
 19 72  1  0  0  0  0
 20 21  1  0  0  0  0
 20103  1  0  0  0  0
 20104  1  0  0  0  0
 21 22  1  0  0  0  0
 21105  1  0  0  0  0
 21106  1  0  0  0  0
 22 23  1  0  0  0  0
 23 24  1  0  0  0  0
 23107  1  0  0  0  0
 23108  1  0  0  0  0
 24 25  1  0  0  0  0
 24109  1  0  0  0  0
 24110  1  0  0  0  0
 25 26  1  0  0  0  0
 26 27  1  0  0  0  0
 26111  1  0  0  0  0
 26112  1  0  0  0  0
 27 28  1  0  0  0  0
 27113  1  0  0  0  0
 27114  1  0  0  0  0
 28 29  1  0  0  0  0
 29 30  1  0  0  0  0
 29115  1  0  0  0  0
 29116  1  0  0  0  0
 30 31  1  0  0  0  0
 30117  1  0  0  0  0
 30118  1  0  0  0  0
 31 32  1  0  0  0  0
 32 33  1  0  0  0  0
 32119  1  0  0  0  0
 32120  1  0  0  0  0
 33 34  1  0  0  0  0
 33121  1  0  0  0  0
 33122  1  0  0  0  0
 34 35  1  0  0  0  0
 35 36  1  0  0  0  0
 35123  1  0  0  0  0
 35124  1  0  0  0  0
 36 37  1  0  0  0  0
 36125  1  0  0  0  0
 36126  1  0  0  0  0
 37 38  1  0  0  0  0
 37 71  1  0  0  0  0
 38 39  2  0  0  0  0
 38127  1  0  0  0  0
 39 40  1  0  0  0  0
 39 70  1  0  0  0  0
 40 41  1  0  0  0  0
 40128  1  0  0  0  0
 40129  1  0  0  0  0
 41 42  1  0  0  0  0
 42 43  2  0  0  0  0
 42 44  1  0  0  0  0
 44 45  2  0  0  0  0
 44 56  1  0  0  0  0
 45 46  1  0  0  0  0
 45 47  1  0  0  0  0
 46130  1  0  0  0  0
 46131  1  0  0  0  0
 46132  1  0  0  0  0
 47 48  1  0  0  0  0
 47133  1  0  0  0  0
 48 49  1  0  0  0  0
 48 50  2  0  0  0  0
 49134  1  0  0  0  0
 49135  1  0  0  0  0
 49136  1  0  0  0  0
 50 51  1  0  0  0  0
 50 56  1  0  0  0  0
 51 52  2  0  0  0  0
 51 53  1  0  0  0  0
 53 54  1  0  0  0  0
 54 55  1  0  0  0  0
 54137  1  0  0  0  0
 54138  1  0  0  0  0
 55139  1  0  0  0  0
 55140  1  0  0  0  0
 55141  1  0  0  0  0
 56 57  1  0  0  0  0
 56142  1  0  0  0  0
 57 58  1  0  0  0  0
 57 68  2  0  0  0  0
 58 59  1  0  0  0  0
 58 66  2  0  0  0  0
 59 60  1  0  0  0  0
 59 64  2  0  0  0  0
 60 61  2  0  0  0  0
 60143  1  0  0  0  0
 61 62  1  0  0  0  0
 61144  1  0  0  0  0
 62 63  2  0  0  0  0
 62145  1  0  0  0  0
 63 64  1  0  0  0  0
 63146  1  0  0  0  0
 64 65  1  0  0  0  0
 66 67  1  0  0  0  0
 67 68  1  0  0  0  0
 68 69  1  0  0  0  0
 69147  1  0  0  0  0
 69148  1  0  0  0  0
 69149  1  0  0  0  0
 70 71  2  0  0  0  0
 72 73  2  0  0  0  0
 74 75  1  0  0  0  0
 74150  1  0  0  0  0
 75 76  1  0  0  0  0
 75 86  2  0  0  0  0
 76 77  1  0  0  0  0
 76 84  2  0  0  0  0
 77 78  1  0  0  0  0
 77 82  2  0  0  0  0
 78 79  2  0  0  0  0
 78151  1  0  0  0  0
 79 80  1  0  0  0  0
 79152  1  0  0  0  0
 80 81  2  0  0  0  0
 80153  1  0  0  0  0
 81 82  1  0  0  0  0
 81154  1  0  0  0  0
 82 83  1  0  0  0  0
 84 85  1  0  0  0  0
 85 86  1  0  0  0  0
 86 87  1  0  0  0  0
 87155  1  0  0  0  0
 87156  1  0  0  0  0
 87157  1  0  0  0  0
M  END
>  <Energy>
165.238

$$$$