134131389
  -OEChem-03242010103D

 49 52  0     0  0  0  0  0  0999 V2000
    5.9322   -2.2176    0.8106 S   0  0  0  0  0  0  0  0  0  0  0  0
   -3.0855    2.9765    0.3053 O   0  0  0  0  0  0  0  0  0  0  0  0
    3.0066    4.4861   -0.2638 O   0  0  0  0  0  0  0  0  0  0  0  0
   -2.1901    0.8257   -0.0063 N   0  0  0  0  0  0  0  0  0  0  0  0
    0.0632   -2.4757   -0.2025 N   0  0  0  0  0  0  0  0  0  0  0  0
   -0.7764   -1.5270    0.2359 N   0  0  0  0  0  0  0  0  0  0  0  0
   -1.7899   -3.2021   -0.9019 N   0  0  0  0  0  0  0  0  0  0  0  0
   -0.4938   -3.4879   -0.8816 N   0  0  0  0  0  0  0  0  0  0  0  0
   -3.2028   -1.3899   -0.0353 C   0  0  0  0  0  0  0  0  0  0  0  0
   -3.3141   -0.0035    0.0703 C   0  0  0  0  0  0  0  0  0  0  0  0
   -1.9256   -2.0258   -0.2266 C   0  0  0  0  0  0  0  0  0  0  0  0
   -4.3431   -2.1891    0.0442 C   0  0  0  0  0  0  0  0  0  0  0  0
   -4.5658    0.5836    0.2553 C   0  0  0  0  0  0  0  0  0  0  0  0
    1.4312   -2.4152    0.0335 C   0  0  0  0  0  0  0  0  0  0  0  0
   -0.7833    2.8164    0.0126 C   0  0  0  0  0  0  0  0  0  0  0  0
   -2.1409    2.2190    0.1113 C   0  0  0  0  0  0  0  0  0  0  0  0
   -5.5948   -1.6020    0.2293 C   0  0  0  0  0  0  0  0  0  0  0  0
   -5.7062   -0.2157    0.3349 C   0  0  0  0  0  0  0  0  0  0  0  0
    2.2664   -3.4261   -0.4421 C   0  0  0  0  0  0  0  0  0  0  0  0
    1.9693   -1.3436    0.7463 C   0  0  0  0  0  0  0  0  0  0  0  0
   -0.5084    4.0301    0.6429 C   0  0  0  0  0  0  0  0  0  0  0  0
    0.2153    2.1639   -0.7104 C   0  0  0  0  0  0  0  0  0  0  0  0
    4.1776   -2.2941    0.5078 C   0  0  0  0  0  0  0  0  0  0  0  0
    3.6395   -3.3656   -0.2049 C   0  0  0  0  0  0  0  0  0  0  0  0
    3.3425   -1.2830    0.9834 C   0  0  0  0  0  0  0  0  0  0  0  0
    1.7639    3.9388   -0.1729 C   0  0  0  0  0  0  0  0  0  0  0  0
    0.7652    4.5913    0.5501 C   0  0  0  0  0  0  0  0  0  0  0  0
    1.4889    2.7252   -0.8031 C   0  0  0  0  0  0  0  0  0  0  0  0
    6.3793   -0.6583   -0.0035 C   0  0  0  0  0  0  0  0  0  0  0  0
    3.9797    3.7656   -1.0188 C   0  0  0  0  0  0  0  0  0  0  0  0
   -1.3084    0.3375   -0.1124 H   0  0  0  0  0  0  0  0  0  0  0  0
   -4.2841   -3.2725   -0.0296 H   0  0  0  0  0  0  0  0  0  0  0  0
   -4.7476    1.6444    0.3406 H   0  0  0  0  0  0  0  0  0  0  0  0
   -6.4828   -2.2242    0.2922 H   0  0  0  0  0  0  0  0  0  0  0  0
   -6.6819    0.2400    0.4778 H   0  0  0  0  0  0  0  0  0  0  0  0
    1.8858   -4.2770   -1.0012 H   0  0  0  0  0  0  0  0  0  0  0  0
    1.3516   -0.5376    1.1341 H   0  0  0  0  0  0  0  0  0  0  0  0
   -1.2705    4.5521    1.2154 H   0  0  0  0  0  0  0  0  0  0  0  0
    0.0378    1.2389   -1.2505 H   0  0  0  0  0  0  0  0  0  0  0  0
    4.2750   -4.1625   -0.5834 H   0  0  0  0  0  0  0  0  0  0  0  0
    3.7387   -0.4418    1.5467 H   0  0  0  0  0  0  0  0  0  0  0  0
    0.9741    5.5363    1.0441 H   0  0  0  0  0  0  0  0  0  0  0  0
    2.2153    2.1696   -1.3865 H   0  0  0  0  0  0  0  0  0  0  0  0
    7.4649   -0.5349    0.0314 H   0  0  0  0  0  0  0  0  0  0  0  0
    5.9177    0.1916    0.5058 H   0  0  0  0  0  0  0  0  0  0  0  0
    6.0623   -0.6710   -1.0499 H   0  0  0  0  0  0  0  0  0  0  0  0
    4.1938    2.7887   -0.5716 H   0  0  0  0  0  0  0  0  0  0  0  0
    3.6927    3.6857   -2.0728 H   0  0  0  0  0  0  0  0  0  0  0  0
    4.9090    4.3435   -0.9835 H   0  0  0  0  0  0  0  0  0  0  0  0
  1 23  1  0  0  0  0
  1 29  1  0  0  0  0
  2 16  2  0  0  0  0
  3 26  1  0  0  0  0
  3 30  1  0  0  0  0
  4 10  1  0  0  0  0
  4 16  1  0  0  0  0
  4 31  1  0  0  0  0
  5  6  1  0  0  0  0
  5  8  1  0  0  0  0
  5 14  1  0  0  0  0
  6 11  2  0  0  0  0
  7  8  2  0  0  0  0
  7 11  1  0  0  0  0
  9 10  1  0  0  0  0
  9 11  1  0  0  0  0
  9 12  2  0  0  0  0
 10 13  2  0  0  0  0
 12 17  1  0  0  0  0
 12 32  1  0  0  0  0
 13 18  1  0  0  0  0
 13 33  1  0  0  0  0
 14 19  2  0  0  0  0
 14 20  1  0  0  0  0
 15 16  1  0  0  0  0
 15 21  2  0  0  0  0
 15 22  1  0  0  0  0
 17 18  2  0  0  0  0
 17 34  1  0  0  0  0
 18 35  1  0  0  0  0
 19 24  1  0  0  0  0
 19 36  1  0  0  0  0
 20 25  2  0  0  0  0
 20 37  1  0  0  0  0
 21 27  1  0  0  0  0
 21 38  1  0  0  0  0
 22 28  2  0  0  0  0
 22 39  1  0  0  0  0
 23 24  2  0  0  0  0
 23 25  1  0  0  0  0
 24 40  1  0  0  0  0
 25 41  1  0  0  0  0
 26 27  2  0  0  0  0
 26 28  1  0  0  0  0
 27 42  1  0  0  0  0
 28 43  1  0  0  0  0
 29 44  1  0  0  0  0
 29 45  1  0  0  0  0
 29 46  1  0  0  0  0
 30 47  1  0  0  0  0
 30 48  1  0  0  0  0
 30 49  1  0  0  0  0
M  END
> <PUBCHEM_COMPOUND_CID>
134131389

> <PUBCHEM_CONFORMER_RMSD>
0.8

> <PUBCHEM_CONFORMER_DIVERSEORDER>
1
22
19
14
13
29
12
21
32
37
31
10
20
17
18
15
26
36
35
4
38
24
23
30
2
33
8
11
5
6
27
7
25
16
34
28
9
3

> <PUBCHEM_MMFF94_PARTIAL_CHARGES>
43
1 -0.33
10 0.12
11 0.46
12 -0.15
13 -0.15
14 -0.02
15 0.09
16 0.54
17 -0.15
18 -0.15
19 -0.15
2 -0.57
20 -0.15
21 -0.15
22 -0.15
23 0.1
24 -0.15
25 -0.15
26 0.08
27 -0.15
28 -0.15
29 0.23
3 -0.36
30 0.28
31 0.37
32 0.15
33 0.15
34 0.15
35 0.15
36 0.15
37 0.15
38 0.15
39 0.15
4 -0.55
40 0.15
41 0.15
42 0.15
43 0.15
5 0.86
6 -0.71
7 -0.23
8 -0.42
9 0.05

> <PUBCHEM_EFFECTIVE_ROTOR_COUNT>
7

> <PUBCHEM_PHARMACOPHORE_FEATURES>
9
1 2 acceptor
1 29 hydrophobe
1 3 acceptor
1 4 donor
3 6 7 11 cation
5 5 6 7 8 11 rings
6 14 19 20 23 24 25 rings
6 15 21 22 26 27 28 rings
6 9 10 12 13 17 18 rings

> <PUBCHEM_HEAVY_ATOM_COUNT>
30

> <PUBCHEM_ATOM_DEF_STEREO_COUNT>
0

> <PUBCHEM_ATOM_UDEF_STEREO_COUNT>
0

> <PUBCHEM_BOND_DEF_STEREO_COUNT>
0

> <PUBCHEM_BOND_UDEF_STEREO_COUNT>
0

> <PUBCHEM_ISOTOPIC_ATOM_COUNT>
0

> <PUBCHEM_COMPONENT_COUNT>
1

> <PUBCHEM_CACTVS_TAUTO_COUNT>
6

> <PUBCHEM_CONFORMER_ID>
07FEAEBD00000001

> <PUBCHEM_MMFF94_ENERGY>
100.3181

> <PUBCHEM_FEATURE_SELFOVERLAP>
45.671

> <PUBCHEM_SHAPE_FINGERPRINT>
10190108 129 17110738207276754179
10290309 65 18121492724846080709
10670039 82 18193008019586605446
10693767 8 15611865350114364199
1100329 8 18338517555181678742
12156800 1 16342326595521056809
13561361 72 18194950865285428530
138480 1 18410856568530463025
140371 6 18196095439578289221
14114211 68 17681577027007349461
14117953 113 18268990891325108597
14394314 77 18411989043864268944
14790565 3 17832711544728690253
15001296 14 18190178082593275080
15320467 1 18410856590152934062
15351339 4 17977380869895961192
15400415 2 16609132713735655552
15419008 145 18120077400879915906
15927050 60 17907864250944743694
15961568 22 18340207384674742726
16719943 64 17761212519977845808
167882 2 18337387262256365927
17627616 140 18192992848991267460
17859628 97 17833553779504543369
18336668 15 18113902628168552021
19611394 137 18187941628144546506
21033648 29 17844507951590617771
21344244 246 18122612011093553399
21360443 120 17973450089719696444
21796203 349 18048635626565625048
23516275 137 18044389437762377824
23559900 14 18411125931974004641
25019877 29 17346306094708802886
373842 8 18409165537090628568
45266715 3 16904656729268990877
469060 322 18267875973106485763
474144 1 18042425598240746804
5385378 56 18194414505595810345
57091435 65 18265057005892210851
57676310 188 18190187970093839708
653340 110 17980196392678196074
6700243 42 17556046622320825742
9543594 6 18412820314005346912
9777508 108 17402890025411755938
9961470 85 18125710442753890672

> <PUBCHEM_SHAPE_MULTIPOLES>
584.59
11.55
7.43
0.86
2.68
8.09
-0.01
-7.99
1.82
4.89
-0.86
0.43
0.05
-1.43

> <PUBCHEM_SHAPE_SELFOVERLAP>
1266.268

> <PUBCHEM_SHAPE_VOLUME>
321.6

> <PUBCHEM_COORDINATE_TYPE>
2
5
10

$$$$