137648400
  -OEChem-03242010103D

 52 55  0     1  0  0  0  0  0999 V2000
    0.0490    3.6004    0.4841 S   0  0  0  0  0  0  0  0  0  0  0  0
   -0.9355   -2.9013   -0.6638 O   0  0  0  0  0  0  0  0  0  0  0  0
   -2.8483   -1.9845   -1.5791 O   0  0  0  0  0  0  0  0  0  0  0  0
   -2.1018   -0.8542    1.5596 N   0  0  2  0  0  0  0  0  0  0  0  0
    2.5523    1.7125   -0.7064 N   0  0  0  0  0  0  0  0  0  0  0  0
   -1.9468    0.6445   -1.0991 C   0  0  1  0  0  0  0  0  0  0  0  0
   -1.1247   -0.5616   -0.6600 C   0  0  1  0  0  0  0  0  0  0  0  0
   -3.0136    1.0019   -0.0067 C   0  0  2  0  0  0  0  0  0  0  0  0
   -0.9023   -0.3772    0.8601 C   0  0  2  0  0  0  0  0  0  0  0  0
   -3.3052   -0.1851    0.9762 C   0  0  0  0  0  0  0  0  0  0  0  0
   -0.9622    1.8117   -1.4260 C   0  0  0  0  0  0  0  0  0  0  0  0
    0.5283   -0.7746    1.2151 C   0  0  0  0  0  0  0  0  0  0  0  0
   -4.3123    1.4858   -0.6550 C   0  0  0  0  0  0  0  0  0  0  0  0
    1.5343    0.1174    0.4799 C   0  0  0  0  0  0  0  0  0  0  0  0
   -1.7592   -1.8788   -1.0314 C   0  0  0  0  0  0  0  0  0  0  0  0
    0.1343    2.1652   -0.3959 C   0  0  0  0  0  0  0  0  0  0  0  0
    1.3263    1.3369   -0.1948 C   0  0  0  0  0  0  0  0  0  0  0  0
   -2.0305   -0.6567    3.0040 C   0  0  0  0  0  0  0  0  0  0  0  0
   -5.3397    1.8694    0.3908 C   0  0  0  0  0  0  0  0  0  0  0  0
    2.9311   -0.2000    0.3611 C   0  0  0  0  0  0  0  0  0  0  0  0
    3.5331    0.8114   -0.3814 C   0  0  0  0  0  0  0  0  0  0  0  0
    3.7358   -1.2651    0.8206 C   0  0  0  0  0  0  0  0  0  0  0  0
    4.8984    0.8183   -0.6900 C   0  0  0  0  0  0  0  0  0  0  0  0
   -1.4176   -4.2159   -0.9596 C   0  0  0  0  0  0  0  0  0  0  0  0
    5.1029   -1.2744    0.5212 C   0  0  0  0  0  0  0  0  0  0  0  0
    5.6739   -0.2461   -0.2235 C   0  0  0  0  0  0  0  0  0  0  0  0
   -2.4674    0.4169   -2.0388 H   0  0  0  0  0  0  0  0  0  0  0  0
   -0.1973   -0.5734   -1.2459 H   0  0  0  0  0  0  0  0  0  0  0  0
   -2.6339    1.8337    0.6008 H   0  0  0  0  0  0  0  0  0  0  0  0
   -0.8900    0.6812    1.1324 H   0  0  0  0  0  0  0  0  0  0  0  0
   -3.9412    0.1753    1.7934 H   0  0  0  0  0  0  0  0  0  0  0  0
   -3.9011   -0.9513    0.4674 H   0  0  0  0  0  0  0  0  0  0  0  0
   -1.5511    2.7072   -1.6614 H   0  0  0  0  0  0  0  0  0  0  0  0
   -0.4308    1.5541   -2.3533 H   0  0  0  0  0  0  0  0  0  0  0  0
    0.7173   -1.8268    0.9786 H   0  0  0  0  0  0  0  0  0  0  0  0
    0.7088   -0.6466    2.2890 H   0  0  0  0  0  0  0  0  0  0  0  0
   -4.7322    0.7124   -1.3089 H   0  0  0  0  0  0  0  0  0  0  0  0
   -4.1011    2.3586   -1.2843 H   0  0  0  0  0  0  0  0  0  0  0  0
   -1.1977   -1.2216    3.4347 H   0  0  0  0  0  0  0  0  0  0  0  0
   -2.9369   -1.0379    3.4881 H   0  0  0  0  0  0  0  0  0  0  0  0
   -1.9136    0.3991    3.2735 H   0  0  0  0  0  0  0  0  0  0  0  0
   -5.7652    0.9944    0.8909 H   0  0  0  0  0  0  0  0  0  0  0  0
   -6.1742    2.3928   -0.0885 H   0  0  0  0  0  0  0  0  0  0  0  0
   -4.9184    2.5408    1.1459 H   0  0  0  0  0  0  0  0  0  0  0  0
    2.7068    2.5541   -1.2438 H   0  0  0  0  0  0  0  0  0  0  0  0
    3.3063   -2.0752    1.4032 H   0  0  0  0  0  0  0  0  0  0  0  0
    5.3429    1.6195   -1.2710 H   0  0  0  0  0  0  0  0  0  0  0  0
   -0.6708   -4.9368   -0.6168 H   0  0  0  0  0  0  0  0  0  0  0  0
   -1.5527   -4.3358   -2.0387 H   0  0  0  0  0  0  0  0  0  0  0  0
   -2.3560   -4.4028   -0.4288 H   0  0  0  0  0  0  0  0  0  0  0  0
    5.7235   -2.0935    0.8746 H   0  0  0  0  0  0  0  0  0  0  0  0
    6.7375   -0.2705   -0.4462 H   0  0  0  0  0  0  0  0  0  0  0  0
  1 16  2  0  0  0  0
  2 15  1  0  0  0  0
  2 24  1  0  0  0  0
  3 15  2  0  0  0  0
  4  9  1  0  0  0  0
  4 10  1  0  0  0  0
  4 18  1  0  0  0  0
  5 17  1  0  0  0  0
  5 21  1  0  0  0  0
  5 45  1  0  0  0  0
  6  7  1  0  0  0  0
  6  8  1  0  0  0  0
  6 11  1  0  0  0  0
  6 27  1  0  0  0  0
  7  9  1  0  0  0  0
  7 15  1  0  0  0  0
  7 28  1  0  0  0  0
  8 10  1  0  0  0  0
  8 13  1  0  0  0  0
  8 29  1  0  0  0  0
  9 12  1  0  0  0  0
  9 30  1  0  0  0  0
 10 31  1  0  0  0  0
 10 32  1  0  0  0  0
 11 16  1  0  0  0  0
 11 33  1  0  0  0  0
 11 34  1  0  0  0  0
 12 14  1  0  0  0  0
 12 35  1  0  0  0  0
 12 36  1  0  0  0  0
 13 19  1  0  0  0  0
 13 37  1  0  0  0  0
 13 38  1  0  0  0  0
 14 17  2  0  0  0  0
 14 20  1  0  0  0  0
 16 17  1  0  0  0  0
 18 39  1  0  0  0  0
 18 40  1  0  0  0  0
 18 41  1  0  0  0  0
 19 42  1  0  0  0  0
 19 43  1  0  0  0  0
 19 44  1  0  0  0  0
 20 21  1  0  0  0  0
 20 22  2  0  0  0  0
 21 23  2  0  0  0  0
 22 25  1  0  0  0  0
 22 46  1  0  0  0  0
 23 26  1  0  0  0  0
 23 47  1  0  0  0  0
 24 48  1  0  0  0  0
 24 49  1  0  0  0  0
 24 50  1  0  0  0  0
 25 26  2  0  0  0  0
 25 51  1  0  0  0  0
 26 52  1  0  0  0  0
M  END
> <PUBCHEM_COMPOUND_CID>
137648400

> <PUBCHEM_CONFORMER_RMSD>
0.8

> <PUBCHEM_CONFORMER_DIVERSEORDER>
1
4
3
2

> <PUBCHEM_MMFF94_PARTIAL_CHARGES>
26
1 -0.38
10 0.27
11 0.06
12 0.18
14 -0.18
15 0.66
16 0.4
17 -0.24
18 0.27
2 -0.43
21 -0.15
22 -0.15
23 -0.15
24 0.28
25 -0.15
26 -0.15
3 -0.57
4 -0.81
45 0.27
46 0.15
47 0.15
5 0.03
51 0.15
52 0.15
7 0.06
9 0.27

> <PUBCHEM_EFFECTIVE_ROTOR_COUNT>
4.2

> <PUBCHEM_PHARMACOPHORE_FEATURES>
9
1 1 acceptor
1 19 hydrophobe
1 3 acceptor
1 4 cation
1 5 cation
1 5 donor
5 5 14 17 20 21 rings
6 20 21 22 23 25 26 rings
6 4 6 7 8 9 10 rings

> <PUBCHEM_HEAVY_ATOM_COUNT>
26

> <PUBCHEM_ATOM_DEF_STEREO_COUNT>
4

> <PUBCHEM_ATOM_UDEF_STEREO_COUNT>
0

> <PUBCHEM_BOND_DEF_STEREO_COUNT>
0

> <PUBCHEM_BOND_UDEF_STEREO_COUNT>
0

> <PUBCHEM_ISOTOPIC_ATOM_COUNT>
0

> <PUBCHEM_COMPONENT_COUNT>
1

> <PUBCHEM_CACTVS_TAUTO_COUNT>
-1

> <PUBCHEM_CONFORMER_ID>
0834591000000001

> <PUBCHEM_MMFF94_ENERGY>
97.5784

> <PUBCHEM_FEATURE_SELFOVERLAP>
45.759

> <PUBCHEM_SHAPE_FINGERPRINT>
107951 10 17386282061319500925
10906281 52 18119267085688303017
12011746 2 17458343040192799017
12553582 1 18410008871188763778
12592029 89 18341615850463891831
12596599 1 17988096598477198404
12715332 25 18410568461945074836
12788726 201 18264766554650889928
13140716 1 18409160039358364320
13224815 77 18041553737254829480
14787075 74 17894909595088910233
14790565 3 18268712714314374180
15196674 1 18040439892862491208
16945 1 17977660141127284881
17980427 23 15267348439351958336
19141452 34 18412542115592492612
20602899 9 17988922275854309071
20775438 99 17261539409079138551
20775530 9 17478882140327381518
21033648 29 18131061632713132609
21267235 1 18042691607393632224
21703447 108 17554031530722420067
229495 10 17833852829498232945
23402539 116 18130498661105441581
23419403 2 15941197536822486523
23559900 14 18113620097579965012
23728640 28 18411981364551686799
34934 24 18407758149332846144
5104073 3 17821731667432714624
633830 44 17603586370090124480
70251023 43 17903914801109853011

> <PUBCHEM_SHAPE_MULTIPOLES>
517.22
9.34
3.44
1.61
7.93
1.48
-0.88
-1.24
-0.06
-2.06
1.15
-1.32
0.64
-0.77

> <PUBCHEM_SHAPE_SELFOVERLAP>
1102.619

> <PUBCHEM_SHAPE_VOLUME>
290.7

> <PUBCHEM_COORDINATE_TYPE>
2
5
10

$$$$