137637229
  -OEChem-03242010103D

 65 69  0     1  0  0  0  0  0999 V2000
   -3.6085   -2.3278   -0.5358 O   0  0  0  0  0  0  0  0  0  0  0  0
   -4.6187   -0.4753   -1.4763 O   0  0  0  0  0  0  0  0  0  0  0  0
    0.6954    2.1099    0.2610 O   0  0  0  0  0  0  0  0  0  0  0  0
   -3.2725    0.0585    1.6182 N   0  0  2  0  0  0  0  0  0  0  0  0
    1.9634   -0.5793   -0.7011 N   0  0  0  0  0  0  0  0  0  0  0  0
   -2.3192    1.1090   -1.0906 C   0  0  1  0  0  0  0  0  0  0  0  0
   -2.3661   -0.3377   -0.6121 C   0  0  1  0  0  0  0  0  0  0  0  0
   -2.9273    2.0598   -0.0017 C   0  0  2  0  0  0  0  0  0  0  0  0
   -2.0398   -0.2853    0.9006 C   0  0  2  0  0  0  0  0  0  0  0  0
   -3.8455    1.3074    1.0262 C   0  0  0  0  0  0  0  0  0  0  0  0
   -0.8424    1.4420   -1.4565 C   0  0  0  0  0  0  0  0  0  0  0  0
   -1.1050   -1.4408    1.2538 C   0  0  0  0  0  0  0  0  0  0  0  0
   -3.6946    3.2110   -0.6550 C   0  0  0  0  0  0  0  0  0  0  0  0
    0.2201   -1.3051    0.4944 C   0  0  0  0  0  0  0  0  0  0  0  0
   -3.6688   -1.0258   -0.9360 C   0  0  0  0  0  0  0  0  0  0  0  0
    0.7384   -0.1988   -0.2030 C   0  0  0  0  0  0  0  0  0  0  0  0
    0.2411    1.1690   -0.3915 C   0  0  0  0  0  0  0  0  0  0  0  0
   -3.0721    0.1927    3.0574 C   0  0  0  0  0  0  0  0  0  0  0  0
    1.1812   -2.3656    0.3706 C   0  0  0  0  0  0  0  0  0  0  0  0
   -4.2532    4.1605    0.3856 C   0  0  0  0  0  0  0  0  0  0  0  0
    2.2499   -1.8822   -0.3802 C   0  0  0  0  0  0  0  0  0  0  0  0
    2.8367    0.2812   -1.4763 C   0  0  0  0  0  0  0  0  0  0  0  0
    1.2352   -3.6974    0.8355 C   0  0  0  0  0  0  0  0  0  0  0  0
    3.3710   -2.6596   -0.6936 C   0  0  0  0  0  0  0  0  0  0  0  0
    2.3485   -4.4886    0.5305 C   0  0  0  0  0  0  0  0  0  0  0  0
    3.6089    1.2650   -0.6326 C   0  0  0  0  0  0  0  0  0  0  0  0
    3.3999   -3.9750   -0.2238 C   0  0  0  0  0  0  0  0  0  0  0  0
   -4.7856   -3.1027   -0.7846 C   0  0  0  0  0  0  0  0  0  0  0  0
    3.5004    2.6332   -0.8813 C   0  0  0  0  0  0  0  0  0  0  0  0
    4.4316    0.8061    0.3960 C   0  0  0  0  0  0  0  0  0  0  0  0
    4.2147    3.5427   -0.1012 C   0  0  0  0  0  0  0  0  0  0  0  0
    5.1458    1.7155    1.1761 C   0  0  0  0  0  0  0  0  0  0  0  0
    5.0374    3.0837    0.9274 C   0  0  0  0  0  0  0  0  0  0  0  0
   -2.8955    1.2157   -2.0189 H   0  0  0  0  0  0  0  0  0  0  0  0
   -1.6414   -0.9155   -1.1997 H   0  0  0  0  0  0  0  0  0  0  0  0
   -2.1048    2.5111    0.5707 H   0  0  0  0  0  0  0  0  0  0  0  0
   -1.3993    0.5675    1.1431 H   0  0  0  0  0  0  0  0  0  0  0  0
   -4.1102    1.9956    1.8377 H   0  0  0  0  0  0  0  0  0  0  0  0
   -4.7971    1.0447    0.5499 H   0  0  0  0  0  0  0  0  0  0  0  0
   -0.7708    2.5018   -1.7317 H   0  0  0  0  0  0  0  0  0  0  0  0
   -0.5566    0.8825   -2.3571 H   0  0  0  0  0  0  0  0  0  0  0  0
   -1.5672   -2.4084    1.0327 H   0  0  0  0  0  0  0  0  0  0  0  0
   -0.8667   -1.4311    2.3239 H   0  0  0  0  0  0  0  0  0  0  0  0
   -4.5145    2.8293   -1.2750 H   0  0  0  0  0  0  0  0  0  0  0  0
   -3.0213    3.7659   -1.3191 H   0  0  0  0  0  0  0  0  0  0  0  0
   -4.0179    0.4361    3.5548 H   0  0  0  0  0  0  0  0  0  0  0  0
   -2.3421    0.9717    3.3043 H   0  0  0  0  0  0  0  0  0  0  0  0
   -2.7351   -0.7529    3.4940 H   0  0  0  0  0  0  0  0  0  0  0  0
   -5.1020    3.7287    0.9240 H   0  0  0  0  0  0  0  0  0  0  0  0
   -4.6221    5.0678   -0.1050 H   0  0  0  0  0  0  0  0  0  0  0  0
   -3.4899    4.4631    1.1096 H   0  0  0  0  0  0  0  0  0  0  0  0
    2.2090    0.7968   -2.2138 H   0  0  0  0  0  0  0  0  0  0  0  0
    3.5341   -0.3262   -2.0615 H   0  0  0  0  0  0  0  0  0  0  0  0
    0.4237   -4.1134    1.4260 H   0  0  0  0  0  0  0  0  0  0  0  0
    4.2015   -2.2744   -1.2747 H   0  0  0  0  0  0  0  0  0  0  0  0
    2.3913   -5.5141    0.8874 H   0  0  0  0  0  0  0  0  0  0  0  0
    4.2568   -4.6045   -0.4492 H   0  0  0  0  0  0  0  0  0  0  0  0
   -4.6077   -4.1177   -0.4195 H   0  0  0  0  0  0  0  0  0  0  0  0
   -4.9903   -3.1462   -1.8586 H   0  0  0  0  0  0  0  0  0  0  0  0
   -5.6381   -2.6795   -0.2448 H   0  0  0  0  0  0  0  0  0  0  0  0
    2.8647    3.0053   -1.6802 H   0  0  0  0  0  0  0  0  0  0  0  0
    4.5406   -0.2537    0.6030 H   0  0  0  0  0  0  0  0  0  0  0  0
    4.1304    4.6080   -0.2948 H   0  0  0  0  0  0  0  0  0  0  0  0
    5.7881    1.3583    1.9757 H   0  0  0  0  0  0  0  0  0  0  0  0
    5.5940    3.7917    1.5345 H   0  0  0  0  0  0  0  0  0  0  0  0
  1 15  1  0  0  0  0
  1 28  1  0  0  0  0
  2 15  2  0  0  0  0
  3 17  2  0  0  0  0
  4  9  1  0  0  0  0
  4 10  1  0  0  0  0
  4 18  1  0  0  0  0
  5 16  1  0  0  0  0
  5 21  1  0  0  0  0
  5 22  1  0  0  0  0
  6  7  1  0  0  0  0
  6  8  1  0  0  0  0
  6 11  1  0  0  0  0
  6 34  1  0  0  0  0
  7  9  1  0  0  0  0
  7 15  1  0  0  0  0
  7 35  1  0  0  0  0
  8 10  1  0  0  0  0
  8 13  1  0  0  0  0
  8 36  1  0  0  0  0
  9 12  1  0  0  0  0
  9 37  1  0  0  0  0
 10 38  1  0  0  0  0
 10 39  1  0  0  0  0
 11 17  1  0  0  0  0
 11 40  1  0  0  0  0
 11 41  1  0  0  0  0
 12 14  1  0  0  0  0
 12 42  1  0  0  0  0
 12 43  1  0  0  0  0
 13 20  1  0  0  0  0
 13 44  1  0  0  0  0
 13 45  1  0  0  0  0
 14 16  2  0  0  0  0
 14 19  1  0  0  0  0
 16 17  1  0  0  0  0
 18 46  1  0  0  0  0
 18 47  1  0  0  0  0
 18 48  1  0  0  0  0
 19 21  1  0  0  0  0
 19 23  2  0  0  0  0
 20 49  1  0  0  0  0
 20 50  1  0  0  0  0
 20 51  1  0  0  0  0
 21 24  2  0  0  0  0
 22 26  1  0  0  0  0
 22 52  1  0  0  0  0
 22 53  1  0  0  0  0
 23 25  1  0  0  0  0
 23 54  1  0  0  0  0
 24 27  1  0  0  0  0
 24 55  1  0  0  0  0
 25 27  2  0  0  0  0
 25 56  1  0  0  0  0
 26 29  2  0  0  0  0
 26 30  1  0  0  0  0
 27 57  1  0  0  0  0
 28 58  1  0  0  0  0
 28 59  1  0  0  0  0
 28 60  1  0  0  0  0
 29 31  1  0  0  0  0
 29 61  1  0  0  0  0
 30 32  2  0  0  0  0
 30 62  1  0  0  0  0
 31 33  2  0  0  0  0
 31 63  1  0  0  0  0
 32 33  1  0  0  0  0
 32 64  1  0  0  0  0
 33 65  1  0  0  0  0
M  END
> <PUBCHEM_COMPOUND_CID>
137637229

> <PUBCHEM_CONFORMER_RMSD>
0.8

> <PUBCHEM_CONFORMER_DIVERSEORDER>
1
15
10
8
7
19
12
3
13
4
16
5
14
6
11
18
2
17
9

> <PUBCHEM_MMFF94_PARTIAL_CHARGES>
37
1 -0.43
10 0.27
11 0.06
12 0.18
14 -0.18
15 0.66
16 -0.24
17 0.59
18 0.27
2 -0.57
21 -0.15
22 0.4
23 -0.15
24 -0.15
25 -0.15
26 -0.14
27 -0.15
28 0.28
29 -0.15
3 -0.57
30 -0.15
31 -0.15
32 -0.15
33 -0.15
4 -0.81
5 0.05
54 0.15
55 0.15
56 0.15
57 0.15
61 0.15
62 0.15
63 0.15
64 0.15
65 0.15
7 0.06
9 0.27

> <PUBCHEM_EFFECTIVE_ROTOR_COUNT>
6.2

> <PUBCHEM_PHARMACOPHORE_FEATURES>
9
1 2 acceptor
1 20 hydrophobe
1 3 acceptor
1 4 cation
1 5 cation
5 5 14 16 19 21 rings
6 19 21 23 24 25 27 rings
6 26 29 30 31 32 33 rings
6 4 6 7 8 9 10 rings

> <PUBCHEM_HEAVY_ATOM_COUNT>
33

> <PUBCHEM_ATOM_DEF_STEREO_COUNT>
4

> <PUBCHEM_ATOM_UDEF_STEREO_COUNT>
0

> <PUBCHEM_BOND_DEF_STEREO_COUNT>
0

> <PUBCHEM_BOND_UDEF_STEREO_COUNT>
0

> <PUBCHEM_ISOTOPIC_ATOM_COUNT>
0

> <PUBCHEM_COMPONENT_COUNT>
1

> <PUBCHEM_CACTVS_TAUTO_COUNT>
-1

> <PUBCHEM_CONFORMER_ID>
08342D6D00000001

> <PUBCHEM_MMFF94_ENERGY>
117.7687

> <PUBCHEM_FEATURE_SELFOVERLAP>
45.761

> <PUBCHEM_SHAPE_FINGERPRINT>
10074138 170 17617072039292875426
1100329 8 18050566244503566445
11007060 377 18267307724039445136
11456790 92 17177164699314218425
11578080 2 18129362827060374721
11582403 64 17845930861923995270
11621639 179 17539128355004620717
12160290 23 17541687327095836138
12403260 363 18262791982117093860
12422481 6 18261937567530797456
12549972 3 17752509588726973592
12788726 201 17476634751850823182
13140716 1 18117278055946364491
13583140 156 18119549660086301819
13911987 19 17827928639140532061
14725015 67 18126552659860465960
14787075 74 17915465114877351936
15230672 131 18262809571137000956
15840311 113 18263647265500497677
17349148 13 17896034506546464116
18393751 57 18120654896948188152
20028762 73 18053942041686101142
20681651 13 18202006499682487059
20775438 99 17540482004457967999
21033648 29 18269261513300134464
21796203 349 17761811410223349858
22182313 1 17821739312194386723
22393880 68 18342465811427287070
23559900 14 18195800778793627414
23569917 315 18267867371200426222
283562 15 18267019642964838797
469060 322 18120950652912496475
57527585 103 17023482935816705051
6371009 1 18265882748010498100
79837 15 18191588768880822226
9981440 41 18335133254128033464

> <PUBCHEM_SHAPE_MULTIPOLES>
651.55
10.5
5.67
1.57
0.15
1.84
-0.78
-5.47
-0.36
3.25
-0.22
-1.23
-0.13
-0.16

> <PUBCHEM_SHAPE_SELFOVERLAP>
1418.326

> <PUBCHEM_SHAPE_VOLUME>
351.4

> <PUBCHEM_COORDINATE_TYPE>
2
5
10

$$$$