118708525
  -OEChem-03242010103D

 65 67  0     1  0  0  0  0  0999 V2000
   -7.2147    3.9045   -1.1364 F   0  0  0  0  0  0  0  0  0  0  0  0
   -7.6387   -0.1835    1.2174 F   0  0  0  0  0  0  0  0  0  0  0  0
   -2.6294   -2.6793   -0.0336 O   0  0  0  0  0  0  0  0  0  0  0  0
    6.5873    2.8140   -0.9506 O   0  0  0  0  0  0  0  0  0  0  0  0
    5.2704   -1.2929    1.1320 O   0  0  0  0  0  0  0  0  0  0  0  0
    7.2560    0.3417    0.1049 O   0  0  0  0  0  0  0  0  0  0  0  0
    1.6597    3.2445    0.0864 O   0  0  0  0  0  0  0  0  0  0  0  0
    0.3824   -6.1272   -1.3534 O   0  0  0  0  0  0  0  0  0  0  0  0
   -0.7306   -1.3005    0.0094 N   0  0  0  0  0  0  0  0  0  0  0  0
    0.9269    1.0120    0.0154 N   0  0  0  0  0  0  0  0  0  0  0  0
   -1.1982   -4.9071   -0.1549 N   0  0  0  0  0  0  0  0  0  0  0  0
   -1.2845    0.0018    0.0172 C   0  0  0  0  0  0  0  0  0  0  0  0
   -0.4659    1.1313    0.0200 C   0  0  0  0  0  0  0  0  0  0  0  0
   -3.2409    1.4196    0.0278 C   0  0  0  0  0  0  0  0  0  0  0  0
   -0.4406   -3.6919   -0.0041 C   0  0  1  0  0  0  0  0  0  0  0  0
   -2.6719    0.1459    0.0213 C   0  0  0  0  0  0  0  0  0  0  0  0
   -1.0349    2.4049    0.0267 C   0  0  0  0  0  0  0  0  0  0  0  0
   -2.4224    2.5490    0.0305 C   0  0  0  0  0  0  0  0  0  0  0  0
   -1.4134   -2.5141    0.0034 C   0  0  0  0  0  0  0  0  0  0  0  0
   -4.6799    1.5703    0.0316 C   0  0  0  0  0  0  0  0  0  0  0  0
    0.3868   -3.7206    1.2715 C   0  0  0  0  0  0  0  0  0  0  0  0
    3.2953    1.5905    0.0620 C   0  0  0  0  0  0  0  0  0  0  0  0
    1.8780    2.0384    0.0478 C   0  0  0  0  0  0  0  0  0  0  0  0
   -5.4817    0.6007    0.6339 C   0  0  0  0  0  0  0  0  0  0  0  0
   -5.2652    2.6862   -0.5668 C   0  0  0  0  0  0  0  0  0  0  0  0
    3.6282    0.3449    0.5943 C   0  0  0  0  0  0  0  0  0  0  0  0
    4.2926    2.4169   -0.4559 C   0  0  0  0  0  0  0  0  0  0  0  0
    5.6229    1.9974   -0.4418 C   0  0  0  0  0  0  0  0  0  0  0  0
    4.9584   -0.0745    0.6084 C   0  0  0  0  0  0  0  0  0  0  0  0
    5.9557    0.7517    0.0902 C   0  0  0  0  0  0  0  0  0  0  0  0
   -6.6524    2.8325   -0.5627 C   0  0  0  0  0  0  0  0  0  0  0  0
   -6.8689    0.7470    0.6379 C   0  0  0  0  0  0  0  0  0  0  0  0
   -0.7194   -6.0265   -0.8200 C   0  0  0  0  0  0  0  0  0  0  0  0
   -7.4541    1.8630    0.0397 C   0  0  0  0  0  0  0  0  0  0  0  0
   -1.7035   -7.1654   -0.8090 C   0  0  0  0  0  0  0  0  0  0  0  0
    7.2007    3.7326   -0.0481 C   0  0  0  0  0  0  0  0  0  0  0  0
    4.1914   -2.0749    1.6407 C   0  0  0  0  0  0  0  0  0  0  0  0
    7.7184   -0.3828   -1.0328 C   0  0  0  0  0  0  0  0  0  0  0  0
    0.2245   -3.5861   -0.8698 H   0  0  0  0  0  0  0  0  0  0  0  0
   -3.3366   -0.7006   -0.0260 H   0  0  0  0  0  0  0  0  0  0  0  0
    0.2810   -1.3557   -0.0046 H   0  0  0  0  0  0  0  0  0  0  0  0
   -0.4779    3.3302    0.0304 H   0  0  0  0  0  0  0  0  0  0  0  0
   -2.8207    3.5595    0.0659 H   0  0  0  0  0  0  0  0  0  0  0  0
    1.2748    0.0659   -0.0665 H   0  0  0  0  0  0  0  0  0  0  0  0
   -0.2573   -3.7766    2.1569 H   0  0  0  0  0  0  0  0  0  0  0  0
    1.0149   -2.8314    1.3789 H   0  0  0  0  0  0  0  0  0  0  0  0
    1.0465   -4.5951    1.2890 H   0  0  0  0  0  0  0  0  0  0  0  0
   -2.1181   -4.9523    0.2750 H   0  0  0  0  0  0  0  0  0  0  0  0
   -5.0728   -0.2678    1.1426 H   0  0  0  0  0  0  0  0  0  0  0  0
   -4.6845    3.4518   -1.0735 H   0  0  0  0  0  0  0  0  0  0  0  0
    2.8432   -0.2537    1.0378 H   0  0  0  0  0  0  0  0  0  0  0  0
    4.0458    3.3878   -0.8788 H   0  0  0  0  0  0  0  0  0  0  0  0
   -8.5340    1.9771    0.0432 H   0  0  0  0  0  0  0  0  0  0  0  0
   -1.7343   -7.6096    0.1895 H   0  0  0  0  0  0  0  0  0  0  0  0
   -1.3954   -7.9250   -1.5328 H   0  0  0  0  0  0  0  0  0  0  0  0
   -2.7014   -6.8089   -1.0804 H   0  0  0  0  0  0  0  0  0  0  0  0
    7.9509    4.3055   -0.5999 H   0  0  0  0  0  0  0  0  0  0  0  0
    6.4573    4.4269    0.3561 H   0  0  0  0  0  0  0  0  0  0  0  0
    7.6984    3.1980    0.7671 H   0  0  0  0  0  0  0  0  0  0  0  0
    3.4787   -2.3401    0.8525 H   0  0  0  0  0  0  0  0  0  0  0  0
    4.6202   -3.0139    2.0062 H   0  0  0  0  0  0  0  0  0  0  0  0
    3.7108   -1.5930    2.4989 H   0  0  0  0  0  0  0  0  0  0  0  0
    8.7687   -0.6400   -0.8711 H   0  0  0  0  0  0  0  0  0  0  0  0
    7.6438    0.2303   -1.9365 H   0  0  0  0  0  0  0  0  0  0  0  0
    7.1473   -1.3081   -1.1588 H   0  0  0  0  0  0  0  0  0  0  0  0
  1 31  1  0  0  0  0
  2 32  1  0  0  0  0
  3 19  2  0  0  0  0
  4 28  1  0  0  0  0
  4 36  1  0  0  0  0
  5 29  1  0  0  0  0
  5 37  1  0  0  0  0
  6 30  1  0  0  0  0
  6 38  1  0  0  0  0
  7 23  2  0  0  0  0
  8 33  2  0  0  0  0
  9 12  1  0  0  0  0
  9 19  1  0  0  0  0
  9 41  1  0  0  0  0
 10 13  1  0  0  0  0
 10 23  1  0  0  0  0
 10 44  1  0  0  0  0
 11 15  1  0  0  0  0
 11 33  1  0  0  0  0
 11 48  1  0  0  0  0
 12 13  2  0  0  0  0
 12 16  1  0  0  0  0
 13 17  1  0  0  0  0
 14 16  2  0  0  0  0
 14 18  1  0  0  0  0
 14 20  1  0  0  0  0
 15 19  1  0  0  0  0
 15 21  1  0  0  0  0
 15 39  1  0  0  0  0
 16 40  1  0  0  0  0
 17 18  2  0  0  0  0
 17 42  1  0  0  0  0
 18 43  1  0  0  0  0
 20 24  2  0  0  0  0
 20 25  1  0  0  0  0
 21 45  1  0  0  0  0
 21 46  1  0  0  0  0
 21 47  1  0  0  0  0
 22 23  1  0  0  0  0
 22 26  2  0  0  0  0
 22 27  1  0  0  0  0
 24 32  1  0  0  0  0
 24 49  1  0  0  0  0
 25 31  2  0  0  0  0
 25 50  1  0  0  0  0
 26 29  1  0  0  0  0
 26 51  1  0  0  0  0
 27 28  2  0  0  0  0
 27 52  1  0  0  0  0
 28 30  1  0  0  0  0
 29 30  2  0  0  0  0
 31 34  1  0  0  0  0
 32 34  2  0  0  0  0
 33 35  1  0  0  0  0
 34 53  1  0  0  0  0
 35 54  1  0  0  0  0
 35 55  1  0  0  0  0
 35 56  1  0  0  0  0
 36 57  1  0  0  0  0
 36 58  1  0  0  0  0
 36 59  1  0  0  0  0
 37 60  1  0  0  0  0
 37 61  1  0  0  0  0
 37 62  1  0  0  0  0
 38 63  1  0  0  0  0
 38 64  1  0  0  0  0
 38 65  1  0  0  0  0
M  END
> <PUBCHEM_COMPOUND_CID>
118708525

> <PUBCHEM_CONFORMER_RMSD>
1.2

> <PUBCHEM_CONFORMER_DIVERSEORDER>
1
13
16
8
15
17
7
12
18
14
5
11
6
2
9
10
3
4

> <PUBCHEM_MMFF94_PARTIAL_CHARGES>
46
1 -0.19
10 -0.55
11 -0.73
12 0.12
13 0.12
15 0.36
16 -0.15
17 -0.15
18 -0.15
19 0.57
2 -0.19
22 0.09
23 0.54
24 -0.15
25 -0.15
26 -0.15
27 -0.15
28 0.08
29 0.08
3 -0.57
30 0.08
31 0.19
32 0.19
33 0.57
34 -0.15
35 0.06
36 0.28
37 0.28
38 0.28
4 -0.36
40 0.15
41 0.37
42 0.15
43 0.15
44 0.37
48 0.37
49 0.15
5 -0.36
50 0.15
51 0.15
52 0.15
53 0.15
6 -0.36
7 -0.57
8 -0.57
9 -0.55

> <PUBCHEM_EFFECTIVE_ROTOR_COUNT>
12

> <PUBCHEM_PHARMACOPHORE_FEATURES>
12
1 10 donor
1 11 donor
1 3 acceptor
1 4 acceptor
1 5 acceptor
1 6 acceptor
1 7 acceptor
1 8 acceptor
1 9 donor
6 12 13 14 16 17 18 rings
6 20 24 25 31 32 34 rings
6 22 26 27 28 29 30 rings

> <PUBCHEM_HEAVY_ATOM_COUNT>
38

> <PUBCHEM_ATOM_DEF_STEREO_COUNT>
1

> <PUBCHEM_ATOM_UDEF_STEREO_COUNT>
0

> <PUBCHEM_BOND_DEF_STEREO_COUNT>
0

> <PUBCHEM_BOND_UDEF_STEREO_COUNT>
0

> <PUBCHEM_ISOTOPIC_ATOM_COUNT>
0

> <PUBCHEM_COMPONENT_COUNT>
1

> <PUBCHEM_CACTVS_TAUTO_COUNT>
727

> <PUBCHEM_CONFORMER_ID>
0713592D00000001

> <PUBCHEM_MMFF94_ENERGY>
151.0381

> <PUBCHEM_FEATURE_SELFOVERLAP>
60.912

> <PUBCHEM_SHAPE_FINGERPRINT>
10050765 1 18051413173711855572
102385 1 17764867292339231745
10940486 97 18118408572996538876
11062273 19 17906165157634645997
11135926 11 18337950092204586301
11719270 70 18339072684432320201
11991303 11 18335143145274205406
12539765 74 18271533000515501813
14028597 1 17702955725677829017
14117953 113 18267298730340770006
14444916 359 18339655455105950599
14866123 147 18268149941066171491
15400415 2 18411699872358807200
15439362 3 18193838133838459981
15483637 11 18194401328061574706
15664458 157 18338790217640087125
15849732 13 17967254199747227101
15890870 6 18410856529606978924
15927050 60 18410572915842563011
16090146 7 18201450146698801186
21133410 171 17116014669163023362
23516275 137 18191324692273432938
23559900 14 18271239551392061328
249057 3 18408325489065045580
25019877 29 18335425668866638269
3178227 256 18337121111628762937
3383291 50 18413389843067645320
3534868 343 16965204665915706269
4017518 198 18412268302927648302
4073 2 17749115529750737400
4461854 278 18265912414004025803
5265222 85 18410574024149613513
6669772 16 18271249326694818679
6679774 75 18262219046222850851
99344 41 18335980870266682961

> <PUBCHEM_SHAPE_MULTIPOLES>
717.32
20.52
8.37
0.99
2.7
21.56
-0.1
-24.57
0.67
-4.17
3.28
0.32
0.62
-0.54

> <PUBCHEM_SHAPE_SELFOVERLAP>
1538.353

> <PUBCHEM_SHAPE_VOLUME>
398.9

> <PUBCHEM_COORDINATE_TYPE>
2
5
10

$$$$