118708516
  -OEChem-03242010103D

 43 45  0     0  0  0  0  0  0999 V2000
    1.1207    2.5692    0.4388 F   0  0  0  0  0  0  0  0  0  0  0  0
   -6.1257   -1.6424    0.5972 O   0  0  0  0  0  0  0  0  0  0  0  0
   -6.8209    0.9774   -0.0203 O   0  0  0  0  0  0  0  0  0  0  0  0
   -1.1982   -1.8408   -0.4736 O   0  0  0  0  0  0  0  0  0  0  0  0
   -0.4870    0.3627   -0.0641 N   0  0  0  0  0  0  0  0  0  0  0  0
    7.2492    0.6871    0.8696 N   0  0  0  0  0  0  0  0  0  0  0  0
    3.6845    0.0312   -0.0103 C   0  0  0  0  0  0  0  0  0  0  0  0
    0.9038    0.2537   -0.0459 C   0  0  0  0  0  0  0  0  0  0  0  0
   -2.8517   -0.2271   -0.2028 C   0  0  0  0  0  0  0  0  0  0  0  0
    3.0805    1.2660    0.2269 C   0  0  0  0  0  0  0  0  0  0  0  0
    2.8982   -1.0923   -0.2651 C   0  0  0  0  0  0  0  0  0  0  0  0
    1.6902    1.3772    0.2089 C   0  0  0  0  0  0  0  0  0  0  0  0
    1.5078   -0.9811   -0.2828 C   0  0  0  0  0  0  0  0  0  0  0  0
    5.1264   -0.0840    0.0072 C   0  0  0  0  0  0  0  0  0  0  0  0
   -1.4293   -0.6538   -0.2696 C   0  0  0  0  0  0  0  0  0  0  0  0
   -3.8375   -1.1411    0.1694 C   0  0  0  0  0  0  0  0  0  0  0  0
   -5.1722   -0.7406    0.2319 C   0  0  0  0  0  0  0  0  0  0  0  0
   -3.2006    1.0873   -0.5128 C   0  0  0  0  0  0  0  0  0  0  0  0
   -5.5212    0.5738   -0.0782 C   0  0  0  0  0  0  0  0  0  0  0  0
   -4.5354    1.4877   -0.4506 C   0  0  0  0  0  0  0  0  0  0  0  0
    5.7797   -1.0276   -0.7778 C   0  0  0  0  0  0  0  0  0  0  0  0
    5.8999    0.7422    0.8064 C   0  0  0  0  0  0  0  0  0  0  0  0
    7.1670   -1.1148   -0.7401 C   0  0  0  0  0  0  0  0  0  0  0  0
    7.8492   -0.2425    0.0925 C   0  0  0  0  0  0  0  0  0  0  0  0
   -5.6851   -2.9653    0.8979 C   0  0  0  0  0  0  0  0  0  0  0  0
   -7.0924    2.3377   -0.3526 C   0  0  0  0  0  0  0  0  0  0  0  0
    3.6539    2.1716    0.4042 H   0  0  0  0  0  0  0  0  0  0  0  0
    3.3262   -2.0778   -0.4287 H   0  0  0  0  0  0  0  0  0  0  0  0
    0.9693   -1.8958   -0.4861 H   0  0  0  0  0  0  0  0  0  0  0  0
   -0.8248    1.2968    0.1503 H   0  0  0  0  0  0  0  0  0  0  0  0
   -3.5144   -2.1484    0.4081 H   0  0  0  0  0  0  0  0  0  0  0  0
   -2.4728    1.8220   -0.8439 H   0  0  0  0  0  0  0  0  0  0  0  0
   -4.7340    2.5212   -0.7129 H   0  0  0  0  0  0  0  0  0  0  0  0
    5.2501   -1.6946   -1.4522 H   0  0  0  0  0  0  0  0  0  0  0  0
    5.4746    1.4873    1.4714 H   0  0  0  0  0  0  0  0  0  0  0  0
    7.6983   -1.8381   -1.3480 H   0  0  0  0  0  0  0  0  0  0  0  0
    8.9320   -0.2688    0.1569 H   0  0  0  0  0  0  0  0  0  0  0  0
   -6.5735   -3.5467    1.1663 H   0  0  0  0  0  0  0  0  0  0  0  0
   -5.0211   -2.9818    1.7689 H   0  0  0  0  0  0  0  0  0  0  0  0
   -5.2407   -3.4521    0.0231 H   0  0  0  0  0  0  0  0  0  0  0  0
   -6.6112    3.0284    0.3483 H   0  0  0  0  0  0  0  0  0  0  0  0
   -6.8381    2.5569   -1.3952 H   0  0  0  0  0  0  0  0  0  0  0  0
   -8.1728    2.4845   -0.2517 H   0  0  0  0  0  0  0  0  0  0  0  0
  1 12  1  0  0  0  0
  2 17  1  0  0  0  0
  2 25  1  0  0  0  0
  3 19  1  0  0  0  0
  3 26  1  0  0  0  0
  4 15  2  0  0  0  0
  5  8  1  0  0  0  0
  5 15  1  0  0  0  0
  5 30  1  0  0  0  0
  6 22  1  0  0  0  0
  6 24  2  0  0  0  0
  7 10  2  0  0  0  0
  7 11  1  0  0  0  0
  7 14  1  0  0  0  0
  8 12  2  0  0  0  0
  8 13  1  0  0  0  0
  9 15  1  0  0  0  0
  9 16  2  0  0  0  0
  9 18  1  0  0  0  0
 10 12  1  0  0  0  0
 10 27  1  0  0  0  0
 11 13  2  0  0  0  0
 11 28  1  0  0  0  0
 13 29  1  0  0  0  0
 14 21  1  0  0  0  0
 14 22  2  0  0  0  0
 16 17  1  0  0  0  0
 16 31  1  0  0  0  0
 17 19  2  0  0  0  0
 18 20  2  0  0  0  0
 18 32  1  0  0  0  0
 19 20  1  0  0  0  0
 20 33  1  0  0  0  0
 21 23  2  0  0  0  0
 21 34  1  0  0  0  0
 22 35  1  0  0  0  0
 23 24  1  0  0  0  0
 23 36  1  0  0  0  0
 24 37  1  0  0  0  0
 25 38  1  0  0  0  0
 25 39  1  0  0  0  0
 25 40  1  0  0  0  0
 26 41  1  0  0  0  0
 26 42  1  0  0  0  0
 26 43  1  0  0  0  0
M  END
> <PUBCHEM_COMPOUND_CID>
118708516

> <PUBCHEM_CONFORMER_RMSD>
0.8

> <PUBCHEM_CONFORMER_DIVERSEORDER>
4
25
30
20
1
29
7
13
23
12
18
24
3
22
19
15
21
26
17
9
11
2
28
27
8
14
5
10
16
6

> <PUBCHEM_MMFF94_PARTIAL_CHARGES>
35
1 -0.19
10 -0.15
11 -0.15
12 0.19
13 -0.15
15 0.54
16 -0.15
17 0.08
18 -0.15
19 0.08
2 -0.36
20 -0.15
21 -0.15
22 0.16
23 -0.15
24 0.16
25 0.28
26 0.28
27 0.15
28 0.15
29 0.15
3 -0.36
30 0.37
31 0.15
32 0.15
33 0.15
34 0.15
35 0.15
36 0.15
37 0.15
4 -0.57
5 -0.55
6 -0.62
8 0.12
9 0.09

> <PUBCHEM_EFFECTIVE_ROTOR_COUNT>
6

> <PUBCHEM_PHARMACOPHORE_FEATURES>
8
1 2 acceptor
1 3 acceptor
1 4 acceptor
1 5 donor
1 6 acceptor
6 6 14 21 22 23 24 rings
6 7 8 10 11 12 13 rings
6 9 16 17 18 19 20 rings

> <PUBCHEM_HEAVY_ATOM_COUNT>
26

> <PUBCHEM_ATOM_DEF_STEREO_COUNT>
0

> <PUBCHEM_ATOM_UDEF_STEREO_COUNT>
0

> <PUBCHEM_BOND_DEF_STEREO_COUNT>
0

> <PUBCHEM_BOND_UDEF_STEREO_COUNT>
0

> <PUBCHEM_ISOTOPIC_ATOM_COUNT>
0

> <PUBCHEM_COMPONENT_COUNT>
1

> <PUBCHEM_CACTVS_TAUTO_COUNT>
5

> <PUBCHEM_CONFORMER_ID>
0713592400000004

> <PUBCHEM_MMFF94_ENERGY>
104.0911

> <PUBCHEM_FEATURE_SELFOVERLAP>
40.602

> <PUBCHEM_SHAPE_FINGERPRINT>
10 15 18339355366468739184
10299344 5 17458345238767609874
10319926 262 18337098047337138291
10638233 991 16081096987000760966
11315181 36 17703790319454037433
11646440 116 17917716824654681146
11719270 70 18272650126278976902
11963148 33 18334288778091999130
12091667 2 18131630093441552479
12166972 35 18260553359157941628
12236239 1 17894915148001316262
12516196 113 18273495680711206280
12838862 33 18270380729482924824
13533116 47 14907909232832209142
13685833 64 18412829105586948370
13885169 127 18409448077245563089
14251764 18 18113334202284919115
14251764 46 18131631171309434598
14856354 85 16805610286735097755
14933364 13 18411982460026686652
15183329 4 18411419471086302536
15419008 91 18339344336687651144
15510794 2 18342739607461778222
15849732 13 18202562878172590924
17093844 174 18408603665427069673
18608769 82 18409731789684314563
20238998 120 18343301462230869792
21033648 29 18201705284645928129
21130935 74 18410009931808952698
21236236 1 17917433064719101720
21267235 1 18412550924718174478
21315759 40 16805318907874759570
21792934 111 18201144453044871808
220451 1 17313099739605533267
22224240 67 10303806575802372420
23522609 53 17459493107295490036
23559900 14 18342730853838439673
3004659 81 18260550031058998740
335352 9 18413669110420882644
3383291 50 18261955266274236787
3545911 37 18411417289501489205
4073 2 18114186362309012587
4463277 17 18413387636103327156
5104073 3 18410569621792032153
59755656 215 18339924822590907494
59755656 520 17167580505414947659

> <PUBCHEM_SHAPE_MULTIPOLES>
500.22
22.9
2.19
0.79
8.51
0.28
-0.02
0.31
-1.16
-4.01
-0.27
0.35
0.09
2.06

> <PUBCHEM_SHAPE_SELFOVERLAP>
1093.215

> <PUBCHEM_SHAPE_VOLUME>
272.4

> <PUBCHEM_COORDINATE_TYPE>
2
5
10

$$$$