166
 OpenBabel03292022013D

 96 99  0  0  1  0  0  0  0  0999 V2000
   -0.4654   15.6894   -7.8813 C   0  0  0  0  0  0  0  0  0  0  0  0
   -1.2399   14.9523   -6.8391 C   0  0  0  0  0  0  0  0  0  0  0  0
   -0.7827   14.6911   -5.6091 C   0  0  0  0  0  0  0  0  0  0  0  0
   -1.4950   13.9538   -4.6812 N   0  0  0  0  0  0  0  0  0  0  0  0
   -0.9593   13.6529   -3.3482 C   0  0  1  0  0  0  0  0  0  0  0  0
   -0.8077   12.1671   -3.0507 C   0  0  0  0  0  0  0  0  0  0  0  0
    0.5928   11.8493   -3.5293 C   0  0  2  0  0  0  0  0  0  0  0  0
    1.1119   10.7241   -2.7415 N   0  0  0  0  0  0  0  0  0  0  0  0
    1.8252    9.8971   -3.3348 N   0  3  0  0  0  0  0  0  0  0  0  0
    2.4946    9.1412   -3.8647 N   0  5  0  0  0  0  0  0  0  0  0  0
    1.3299   13.1492   -3.2095 C   0  0  1  0  0  0  0  0  0  0  0  0
    2.4171   13.5125   -4.2162 C   0  0  0  0  0  0  0  0  0  0  0  0
    3.4727   12.5498   -4.2440 O   0  0  0  0  0  0  0  0  0  0  0  0
    3.6213   11.8446   -5.3892 C   0  0  0  0  0  0  0  0  0  0  0  0
    2.7903   11.7687   -6.2794 O   0  0  0  0  0  0  0  0  0  0  0  0
    4.9958   11.2069   -5.4659 C   0  0  0  0  0  0  0  0  0  0  0  0
    5.8348   11.4161   -4.2010 C   0  0  0  0  0  0  0  0  0  0  0  0
    7.2774   10.9290   -4.3230 C   0  0  0  0  0  0  0  0  0  0  0  0
    8.0599   11.5836   -5.4594 C   0  0  0  0  0  0  0  0  0  0  0  0
    8.0916   13.1134   -5.3611 C   0  0  0  0  0  0  0  0  0  0  0  0
    8.8314   13.7564   -6.5270 C   0  0  0  0  0  0  0  0  0  0  0  0
    8.1273   13.5321   -7.8670 C   0  0  0  0  0  0  0  0  0  0  0  0
    8.9096   14.1252   -9.0353 C   0  0  0  0  0  0  0  0  0  0  0  0
   10.3265   13.5481   -9.2067 C   0  0  0  0  0  0  0  0  0  0  0  0
   10.3714   12.0290   -9.4018 C   0  0  0  0  0  0  0  0  0  0  0  0
    9.5861   11.6495  -10.6321 C   0  0  0  0  0  0  0  0  0  0  0  0
    9.5005   12.3541  -11.6315 O   0  0  0  0  0  0  0  0  0  0  0  0
    8.9151   10.4851  -10.4381 O   0  0  0  0  0  0  0  0  0  0  0  0
    7.7967   10.2932  -11.3246 C   0  0  0  0  0  0  0  0  0  0  0  0
    8.1644    9.9938  -12.7832 C   0  0  1  0  0  0  0  0  0  0  0  0
    8.9559    8.7957  -12.8773 O   0  0  0  0  0  0  0  0  0  0  0  0
    8.3938    7.9366  -13.8834 C   0  0  1  0  0  0  0  0  0  0  0  0
    7.8509    6.7245  -13.2613 N   0  0  0  0  0  0  0  0  0  0  0  0
    7.9497    6.5097  -11.8983 C   0  0  0  0  0  0  0  0  0  0  0  0
    7.6143    5.3543  -11.3151 C   0  0  0  0  0  0  0  0  0  0  0  0
    7.7633    5.0901   -9.8537 C   0  0  0  0  0  0  0  0  0  0  0  0
    7.1095    4.2648  -12.1777 C   0  0  0  0  0  0  0  0  0  0  0  0
    6.8344    3.1574  -11.7302 O   0  0  0  0  0  0  0  0  0  0  0  0
    6.9891    4.5654  -13.5038 N   0  0  0  0  0  0  0  0  0  0  0  0
    7.4134    5.7162  -14.1129 C   0  0  0  0  0  0  0  0  0  0  0  0
    7.4029    5.8081  -15.3385 O   0  0  0  0  0  0  0  0  0  0  0  0
    7.3724    8.7736  -14.6464 C   0  0  0  0  0  0  0  0  0  0  0  0
    6.9029    9.7692  -13.6147 C   0  0  2  0  0  0  0  0  0  0  0  0
    6.4787   11.0219  -14.2431 N   0  0  0  0  0  0  0  0  0  0  0  0
    5.2855   11.0938  -14.5855 N   0  3  0  0  0  0  0  0  0  0  0  0
    4.1904   11.1501  -14.8915 N   0  5  0  0  0  0  0  0  0  0  0  0
    0.3554   14.2140   -3.1827 O   0  0  0  0  0  0  0  0  0  0  0  0
   -2.7978   13.5435   -4.9453 C   0  0  0  0  0  0  0  0  0  0  0  0
   -3.5044   12.9356   -4.1443 O   0  0  0  0  0  0  0  0  0  0  0  0
   -3.2783   13.8474   -6.1904 N   0  0  0  0  0  0  0  0  0  0  0  0
   -2.5937   14.4730   -7.1912 C   0  0  0  0  0  0  0  0  0  0  0  0
   -3.0720   14.6359   -8.3078 O   0  0  0  0  0  0  0  0  0  0  0  0
    0.5033   16.0309   -7.5003 H   0  0  0  0  0  0  0  0  0  0  0  0
   -1.0154   16.5696   -8.2281 H   0  0  0  0  0  0  0  0  0  0  0  0
   -0.2703   15.0373   -8.7391 H   0  0  0  0  0  0  0  0  0  0  0  0
    0.1915   15.0617   -5.3111 H   0  0  0  0  0  0  0  0  0  0  0  0
   -1.6256   14.1269   -2.6180 H   0  0  0  0  0  0  0  0  0  0  0  0
   -1.5570   11.5170   -3.5090 H   0  0  0  0  0  0  0  0  0  0  0  0
   -0.8708   12.0174   -1.9643 H   0  0  0  0  0  0  0  0  0  0  0  0
    0.5761   11.6374   -4.6059 H   0  0  0  0  0  0  0  0  0  0  0  0
    1.7768   13.0937   -2.2088 H   0  0  0  0  0  0  0  0  0  0  0  0
    2.8719   14.4642   -3.9159 H   0  0  0  0  0  0  0  0  0  0  0  0
    2.0004   13.6964   -5.2113 H   0  0  0  0  0  0  0  0  0  0  0  0
    5.4803   11.6737   -6.3311 H   0  0  0  0  0  0  0  0  0  0  0  0
    4.8765   10.1383   -5.6627 H   0  0  0  0  0  0  0  0  0  0  0  0
    5.3570   10.8976   -3.3610 H   0  0  0  0  0  0  0  0  0  0  0  0
    5.8447   12.4769   -3.9230 H   0  0  0  0  0  0  0  0  0  0  0  0
    7.2819    9.8427   -4.4682 H   0  0  0  0  0  0  0  0  0  0  0  0
    7.7946   11.1244   -3.3759 H   0  0  0  0  0  0  0  0  0  0  0  0
    7.6243   11.2588   -6.4082 H   0  0  0  0  0  0  0  0  0  0  0  0
    9.0865   11.1983   -5.4547 H   0  0  0  0  0  0  0  0  0  0  0  0
    8.5898   13.3997   -4.4268 H   0  0  0  0  0  0  0  0  0  0  0  0
    7.0820   13.5347   -5.3268 H   0  0  0  0  0  0  0  0  0  0  0  0
    9.8511   13.3609   -6.5436 H   0  0  0  0  0  0  0  0  0  0  0  0
    8.9091   14.8356   -6.3464 H   0  0  0  0  0  0  0  0  0  0  0  0
    7.1288   13.9864   -7.8345 H   0  0  0  0  0  0  0  0  0  0  0  0
    7.9628   12.4682   -8.0595 H   0  0  0  0  0  0  0  0  0  0  0  0
    8.9798   15.2115   -8.9088 H   0  0  0  0  0  0  0  0  0  0  0  0
    8.3272   13.9659   -9.9508 H   0  0  0  0  0  0  0  0  0  0  0  0
   10.9467   13.8171   -8.3451 H   0  0  0  0  0  0  0  0  0  0  0  0
   10.7896   14.0391  -10.0711 H   0  0  0  0  0  0  0  0  0  0  0  0
    9.9553   11.5201   -8.5237 H   0  0  0  0  0  0  0  0  0  0  0  0
   11.4012   11.6836   -9.5237 H   0  0  0  0  0  0  0  0  0  0  0  0
    7.1393   11.1699  -11.2568 H   0  0  0  0  0  0  0  0  0  0  0  0
    7.2406    9.4495  -10.9028 H   0  0  0  0  0  0  0  0  0  0  0  0
    8.7762   10.7896  -13.2167 H   0  0  0  0  0  0  0  0  0  0  0  0
    9.2007    7.6211  -14.5552 H   0  0  0  0  0  0  0  0  0  0  0  0
    8.3564    7.3136  -11.2925 H   0  0  0  0  0  0  0  0  0  0  0  0
    8.1109    5.9797   -9.3163 H   0  0  0  0  0  0  0  0  0  0  0  0
    8.4949    4.2941   -9.6820 H   0  0  0  0  0  0  0  0  0  0  0  0
    6.8071    4.7915   -9.4134 H   0  0  0  0  0  0  0  0  0  0  0  0
    6.6907    3.8187  -14.1116 H   0  0  0  0  0  0  0  0  0  0  0  0
    6.5445    8.2089  -15.0842 H   0  0  0  0  0  0  0  0  0  0  0  0
    7.8778    9.2995  -15.4676 H   0  0  0  0  0  0  0  0  0  0  0  0
    6.1009    9.3312  -13.0037 H   0  0  0  0  0  0  0  0  0  0  0  0
   -4.2090   13.5266   -6.4060 H   0  0  0  0  0  0  0  0  0  0  0  0
  1  2  1  0  0  0  0
  1 53  1  0  0  0  0
  1 54  1  0  0  0  0
  1 55  1  0  0  0  0
  2  3  2  0  0  0  0
  2 51  1  0  0  0  0
  3  4  1  0  0  0  0
  3 56  1  0  0  0  0
  4 48  1  0  0  0  0
  5  6  1  0  0  0  0
  5 47  1  0  0  0  0
  5  4  1  0  0  0  0
  5 57  1  1  0  0  0
  6  7  1  0  0  0  0
  6 58  1  0  0  0  0
  6 59  1  0  0  0  0
  7 11  1  0  0  0  0
  7  8  1  0  0  0  0
  7 60  1  6  0  0  0
  8  9  2  0  0  0  0
  9 10  2  0  0  0  0
 11 12  1  0  0  0  0
 11 47  1  0  0  0  0
 11 61  1  1  0  0  0
 12 13  1  0  0  0  0
 12 62  1  0  0  0  0
 12 63  1  0  0  0  0
 13 14  1  0  0  0  0
 14 15  2  0  0  0  0
 14 16  1  0  0  0  0
 16 17  1  0  0  0  0
 16 64  1  0  0  0  0
 16 65  1  0  0  0  0
 17 18  1  0  0  0  0
 17 66  1  0  0  0  0
 17 67  1  0  0  0  0
 18 19  1  0  0  0  0
 18 68  1  0  0  0  0
 18 69  1  0  0  0  0
 19 20  1  0  0  0  0
 19 70  1  0  0  0  0
 19 71  1  0  0  0  0
 20 21  1  0  0  0  0
 20 72  1  0  0  0  0
 20 73  1  0  0  0  0
 21 22  1  0  0  0  0
 21 74  1  0  0  0  0
 21 75  1  0  0  0  0
 22 23  1  0  0  0  0
 22 76  1  0  0  0  0
 22 77  1  0  0  0  0
 23 24  1  0  0  0  0
 23 78  1  0  0  0  0
 23 79  1  0  0  0  0
 24 25  1  0  0  0  0
 24 80  1  0  0  0  0
 24 81  1  0  0  0  0
 25 26  1  0  0  0  0
 25 82  1  0  0  0  0
 25 83  1  0  0  0  0
 26 27  2  0  0  0  0
 26 28  1  0  0  0  0
 28 29  1  0  0  0  0
 29 30  1  0  0  0  0
 29 84  1  0  0  0  0
 29 85  1  0  0  0  0
 30 31  1  0  0  0  0
 30 43  1  0  0  0  0
 30 86  1  6  0  0  0
 31 32  1  0  0  0  0
 32 42  1  0  0  0  0
 32 33  1  0  0  0  0
 32 87  1  6  0  0  0
 33 34  1  0  0  0  0
 33 40  1  0  0  0  0
 34 35  2  0  0  0  0
 34 88  1  0  0  0  0
 35 36  1  0  0  0  0
 35 37  1  0  0  0  0
 36 89  1  0  0  0  0
 36 90  1  0  0  0  0
 36 91  1  0  0  0  0
 37 38  2  0  0  0  0
 37 39  1  0  0  0  0
 39 40  1  0  0  0  0
 39 92  1  0  0  0  0
 40 41  2  0  0  0  0
 42 43  1  0  0  0  0
 42 93  1  0  0  0  0
 42 94  1  0  0  0  0
 43 44  1  0  0  0  0
 43 95  1  1  0  0  0
 44 45  2  0  0  0  0
 45 46  2  0  0  0  0
 48 49  2  0  0  0  0
 48 50  1  0  0  0  0
 50 51  1  0  0  0  0
 50 96  1  0  0  0  0
 51 52  2  0  0  0  0
M  CHG  4   9   1  10  -1  45   1  46  -1
M  END
>  <Energy>
-160.399

$$$$