167
 OpenBabel03292022023D

 75 79  0  0  1  0  0  0  0  0999 V2000
    1.6790    3.4786    0.6589 C   0  0  0  0  0  0  0  0  0  0  0  0
    2.7336    2.4356    1.0219 C   0  0  0  0  0  0  0  0  0  0  0  0
    3.8176    2.3137   -0.0585 C   0  0  1  0  0  0  0  0  0  0  0  0
    4.6208    3.7215   -0.2168 C   0  0  0  0  0  0  0  0  0  0  0  0
    6.0128    3.7605   -0.8057 N   0  0  0  0  0  0  0  0  0  0  0  0
    6.0161    4.1560   -2.2181 C   0  0  0  0  0  0  0  0  0  0  0  0
    6.8170    2.4992   -0.5646 C   0  0  1  0  0  0  0  0  0  0  0  0
    7.3893    2.6506    0.9120 C   0  0  0  0  0  0  0  0  0  0  0  0
    7.4034    1.5795    2.0045 C   0  0  0  0  0  0  0  0  0  0  0  0
    7.0617    0.2292    2.0023 C   0  0  0  0  0  0  0  0  0  0  0  0
    7.4703   -0.3062    3.2014 N   0  0  0  0  0  0  0  0  0  0  0  0
    7.6492    0.6923    4.1204 C   0  0  0  0  0  0  0  0  0  0  0  0
    7.8222    0.6191    5.5092 C   0  0  0  0  0  0  0  0  0  0  0  0
    7.8996    1.8225    6.2128 C   0  0  0  0  0  0  0  0  0  0  0  0
    7.8453    3.0425    5.5449 C   0  0  0  0  0  0  0  0  0  0  0  0
    7.7318    3.0907    4.1474 C   0  0  0  0  0  0  0  0  0  0  0  0
    7.6148    1.8902    3.4105 C   0  0  0  0  0  0  0  0  0  0  0  0
    6.3986   -0.5872    1.0083 C   0  0  0  0  0  0  0  0  0  0  0  0
    7.1896   -1.4664    0.4728 N   0  0  0  0  0  0  0  0  0  0  0  0
    6.8360   -2.2799   -0.5505 N   0  0  0  0  0  0  0  0  0  0  0  0
    7.8412   -2.8532   -1.3150 C   0  0  0  0  0  0  0  0  0  0  0  0
    9.0411   -2.8140   -1.0866 O   0  0  0  0  0  0  0  0  0  0  0  0
    7.2959   -3.4510   -2.4173 O   0  0  0  0  0  0  0  0  0  0  0  0
    8.2166   -4.1060   -3.3030 C   0  0  0  0  0  0  0  0  0  0  0  0
    8.1183   -5.5980   -3.1083 C   0  0  0  0  0  0  0  0  0  0  0  0
    7.1821   -6.3525   -3.8247 C   0  0  0  0  0  0  0  0  0  0  0  0
    7.0580   -7.7253   -3.5958 C   0  0  0  0  0  0  0  0  0  0  0  0
    7.8698   -8.3698   -2.6606 C   0  0  0  0  0  0  0  0  0  0  0  0
    7.6143   -9.7038   -2.5021 O   0  0  0  0  0  0  0  0  0  0  0  0
    8.6626  -10.4930   -1.9546 C   0  0  0  0  0  0  0  0  0  0  0  0
    8.8068   -7.6257   -1.9447 C   0  0  0  0  0  0  0  0  0  0  0  0
    8.9262   -6.2471   -2.1645 C   0  0  0  0  0  0  0  0  0  0  0  0
    4.9031   -0.2164    0.7229 C   0  0  0  0  0  0  0  0  0  0  0  0
    4.8923    1.2386    0.2259 C   0  0  1  0  0  0  0  0  0  0  0  0
    5.8424    1.3982   -0.9545 C   0  0  2  0  0  0  0  0  0  0  0  0
    6.0877    0.2612   -1.9398 C   0  0  0  0  0  0  0  0  0  0  0  0
    5.3724   -0.7324   -2.0037 O   0  0  0  0  0  0  0  0  0  0  0  0
    6.8993    0.6500   -2.9662 O   0  0  0  0  0  0  0  0  0  0  0  0
    6.6087   -0.0489   -4.1812 C   0  0  0  0  0  0  0  0  0  0  0  0
    0.8873    3.5018    1.4136 H   0  0  0  0  0  0  0  0  0  0  0  0
    1.2206    3.2516   -0.3093 H   0  0  0  0  0  0  0  0  0  0  0  0
    2.1067    4.4850    0.6041 H   0  0  0  0  0  0  0  0  0  0  0  0
    2.2410    1.4670    1.1581 H   0  0  0  0  0  0  0  0  0  0  0  0
    3.1836    2.7071    1.9845 H   0  0  0  0  0  0  0  0  0  0  0  0
    3.3151    2.0873   -1.0089 H   0  0  0  0  0  0  0  0  0  0  0  0
    4.7241    4.1484    0.7892 H   0  0  0  0  0  0  0  0  0  0  0  0
    3.9829    4.4272   -0.7637 H   0  0  0  0  0  0  0  0  0  0  0  0
    5.8557    5.2348   -2.3009 H   0  0  0  0  0  0  0  0  0  0  0  0
    5.2452    3.6515   -2.8102 H   0  0  0  0  0  0  0  0  0  0  0  0
    6.9847    3.9499   -2.6903 H   0  0  0  0  0  0  0  0  0  0  0  0
    7.6943    2.4757   -1.2223 H   0  0  0  0  0  0  0  0  0  0  0  0
    6.8779    3.5040    1.3835 H   0  0  0  0  0  0  0  0  0  0  0  0
    8.4262    3.0040    0.8113 H   0  0  0  0  0  0  0  0  0  0  0  0
    7.4507   -1.2933    3.4184 H   0  0  0  0  0  0  0  0  0  0  0  0
    7.8584   -0.3329    6.0287 H   0  0  0  0  0  0  0  0  0  0  0  0
    7.9924    1.8033    7.2969 H   0  0  0  0  0  0  0  0  0  0  0  0
    7.8819    3.9684    6.1138 H   0  0  0  0  0  0  0  0  0  0  0  0
    7.6751    4.0531    3.6478 H   0  0  0  0  0  0  0  0  0  0  0  0
    5.9314   -2.1730   -1.0070 H   0  0  0  0  0  0  0  0  0  0  0  0
    9.2520   -3.7626   -3.1937 H   0  0  0  0  0  0  0  0  0  0  0  0
    7.9257   -3.8479   -4.3286 H   0  0  0  0  0  0  0  0  0  0  0  0
    6.5330   -5.8770   -4.5559 H   0  0  0  0  0  0  0  0  0  0  0  0
    6.3183   -8.2988   -4.1487 H   0  0  0  0  0  0  0  0  0  0  0  0
    8.3004  -11.5242   -1.8912 H   0  0  0  0  0  0  0  0  0  0  0  0
    8.9277  -10.1818   -0.9400 H   0  0  0  0  0  0  0  0  0  0  0  0
    9.5366  -10.4834   -2.6138 H   0  0  0  0  0  0  0  0  0  0  0  0
    9.4375   -8.0763   -1.1863 H   0  0  0  0  0  0  0  0  0  0  0  0
    9.6452   -5.6752   -1.5785 H   0  0  0  0  0  0  0  0  0  0  0  0
    4.3683   -0.2780    1.6799 H   0  0  0  0  0  0  0  0  0  0  0  0
    4.4173   -0.9272    0.0563 H   0  0  0  0  0  0  0  0  0  0  0  0
    5.2583    1.7196    1.1320 H   0  0  0  0  0  0  0  0  0  0  0  0
    5.2098    1.8615   -1.7319 H   0  0  0  0  0  0  0  0  0  0  0  0
    7.3857    0.1779   -4.9125 H   0  0  0  0  0  0  0  0  0  0  0  0
    5.6471    0.3008   -4.5807 H   0  0  0  0  0  0  0  0  0  0  0  0
    6.5750   -1.1343   -4.0364 H   0  0  0  0  0  0  0  0  0  0  0  0
  1  2  1  0  0  0  0
  1 40  1  0  0  0  0
  1 41  1  0  0  0  0
  1 42  1  0  0  0  0
  2 43  1  0  0  0  0
  2 44  1  0  0  0  0
  3  4  1  0  0  0  0
  3 34  1  0  0  0  0
  3  2  1  0  0  0  0
  3 45  1  6  0  0  0
  4  5  1  0  0  0  0
  4 46  1  0  0  0  0
  4 47  1  0  0  0  0
  5  6  1  0  0  0  0
  5  7  1  0  0  0  0
  6 48  1  0  0  0  0
  6 49  1  0  0  0  0
  6 50  1  0  0  0  0
  7  8  1  0  0  0  0
  7 35  1  0  0  0  0
  7 51  1  6  0  0  0
  8  9  1  0  0  0  0
  8 52  1  0  0  0  0
  8 53  1  0  0  0  0
  9 10  2  0  0  0  0
  9 17  1  0  0  0  0
 10 11  1  0  0  0  0
 10 18  1  0  0  0  0
 11 12  1  0  0  0  0
 11 54  1  0  0  0  0
 12 13  1  0  0  0  0
 12 17  2  0  0  0  0
 13 14  2  0  0  0  0
 13 55  1  0  0  0  0
 14 15  1  0  0  0  0
 14 56  1  0  0  0  0
 15 16  2  0  0  0  0
 15 57  1  0  0  0  0
 16 17  1  0  0  0  0
 16 58  1  0  0  0  0
 18 19  2  0  0  0  0
 18 33  1  0  0  0  0
 19 20  1  0  0  0  0
 20 21  1  0  0  0  0
 20 59  1  0  0  0  0
 21 22  2  0  0  0  0
 21 23  1  0  0  0  0
 23 24  1  0  0  0  0
 24 25  1  0  0  0  0
 24 60  1  0  0  0  0
 24 61  1  0  0  0  0
 25 26  1  0  0  0  0
 25 32  2  0  0  0  0
 26 27  2  0  0  0  0
 26 62  1  0  0  0  0
 27 28  1  0  0  0  0
 27 63  1  0  0  0  0
 28 29  1  0  0  0  0
 28 31  2  0  0  0  0
 29 30  1  0  0  0  0
 30 64  1  0  0  0  0
 30 65  1  0  0  0  0
 30 66  1  0  0  0  0
 31 32  1  0  0  0  0
 31 67  1  0  0  0  0
 32 68  1  0  0  0  0
 33 34  1  0  0  0  0
 33 69  1  0  0  0  0
 33 70  1  0  0  0  0
 34 35  1  0  0  0  0
 34 71  1  1  0  0  0
 35 36  1  0  0  0  0
 35 72  1  6  0  0  0
 36 37  2  0  0  0  0
 36 38  1  0  0  0  0
 38 39  1  0  0  0  0
 39 73  1  0  0  0  0
 39 74  1  0  0  0  0
 39 75  1  0  0  0  0
M  END
>  <Energy>
180.725

$$$$