127040368
  -OEChem-03242010103D

 56 59  0     0  0  0  0  0  0999 V2000
    2.7187   -0.1544    1.0289 O   0  0  0  0  0  0  0  0  0  0  0  0
    0.9669    2.3431    2.3950 O   0  0  0  0  0  0  0  0  0  0  0  0
    6.9367    0.8756   -1.1297 O   0  0  0  0  0  0  0  0  0  0  0  0
    5.0897    2.7092   -0.6464 O   0  0  0  0  0  0  0  0  0  0  0  0
    5.9317   -3.5608    0.2357 O   0  0  0  0  0  0  0  0  0  0  0  0
   -9.0711   -2.0002    0.4692 O   0  5  0  0  0  0  0  0  0  0  0  0
   -9.5230    0.1460    0.5617 O   0  0  0  0  0  0  0  0  0  0  0  0
   -2.4752    0.2276   -0.5549 N   0  0  0  0  0  0  0  0  0  0  0  0
   -0.1045    0.8925    0.9252 N   0  0  0  0  0  0  0  0  0  0  0  0
   -8.7382   -0.8007    0.3121 N   0  3  0  0  0  0  0  0  0  0  0  0
   -2.4531    1.4037    0.3251 C   0  0  0  0  0  0  0  0  0  0  0  0
   -1.1484    0.0135   -1.1475 C   0  0  0  0  0  0  0  0  0  0  0  0
   -1.4338    1.2139    1.4462 C   0  0  0  0  0  0  0  0  0  0  0  0
   -0.0832   -0.1902   -0.0668 C   0  0  0  0  0  0  0  0  0  0  0  0
   -3.4851    0.3875   -1.6004 C   0  0  0  0  0  0  0  0  0  0  0  0
    1.0090    1.5195    1.4794 C   0  0  0  0  0  0  0  0  0  0  0  0
   -4.8687    0.0741   -1.0961 C   0  0  0  0  0  0  0  0  0  0  0  0
    2.3368    1.1674    0.9372 C   0  0  0  0  0  0  0  0  0  0  0  0
   -5.2612   -1.2519   -0.9131 C   0  0  0  0  0  0  0  0  0  0  0  0
   -5.7582    1.1104   -0.8119 C   0  0  0  0  0  0  0  0  0  0  0  0
    3.0644    2.1546    0.4007 C   0  0  0  0  0  0  0  0  0  0  0  0
    3.9499   -0.5014    0.5304 C   0  0  0  0  0  0  0  0  0  0  0  0
    4.8150    0.4227   -0.0570 C   0  0  0  0  0  0  0  0  0  0  0  0
   -6.5433   -1.5417   -0.4465 C   0  0  0  0  0  0  0  0  0  0  0  0
   -7.0404    0.8206   -0.3453 C   0  0  0  0  0  0  0  0  0  0  0  0
    4.3967    1.8320   -0.1496 C   0  0  0  0  0  0  0  0  0  0  0  0
   -7.4328   -0.5054   -0.1625 C   0  0  0  0  0  0  0  0  0  0  0  0
    6.0569    0.0136   -0.5481 C   0  0  0  0  0  0  0  0  0  0  0  0
    4.3237   -1.8416    0.6298 C   0  0  0  0  0  0  0  0  0  0  0  0
    5.5636   -2.2534    0.1403 C   0  0  0  0  0  0  0  0  0  0  0  0
    6.4278   -1.3280   -0.4472 C   0  0  0  0  0  0  0  0  0  0  0  0
    6.8308    1.0553   -2.5408 C   0  0  0  0  0  0  0  0  0  0  0  0
    5.0017   -4.4534    0.8472 C   0  0  0  0  0  0  0  0  0  0  0  0
   -0.8685    0.8675   -1.7791 H   0  0  0  0  0  0  0  0  0  0  0  0
   -2.2070    2.3110   -0.2428 H   0  0  0  0  0  0  0  0  0  0  0  0
   -1.1585   -0.8783   -1.7858 H   0  0  0  0  0  0  0  0  0  0  0  0
   -3.4304    1.5624    0.7934 H   0  0  0  0  0  0  0  0  0  0  0  0
   -1.3979    2.1160    2.0659 H   0  0  0  0  0  0  0  0  0  0  0  0
   -1.7315    0.3837    2.0988 H   0  0  0  0  0  0  0  0  0  0  0  0
   -0.2584   -1.1267    0.4762 H   0  0  0  0  0  0  0  0  0  0  0  0
    0.8887   -0.2664   -0.5576 H   0  0  0  0  0  0  0  0  0  0  0  0
   -3.2931   -0.3109   -2.4275 H   0  0  0  0  0  0  0  0  0  0  0  0
   -3.4472    1.3858   -2.0577 H   0  0  0  0  0  0  0  0  0  0  0  0
   -4.5768   -2.0676   -1.1310 H   0  0  0  0  0  0  0  0  0  0  0  0
   -5.4649    2.1477   -0.9500 H   0  0  0  0  0  0  0  0  0  0  0  0
    2.7238    3.1822    0.3465 H   0  0  0  0  0  0  0  0  0  0  0  0
   -6.8144   -2.5863   -0.3161 H   0  0  0  0  0  0  0  0  0  0  0  0
   -7.7066    1.6532   -0.1345 H   0  0  0  0  0  0  0  0  0  0  0  0
    3.6107   -2.5139    1.0955 H   0  0  0  0  0  0  0  0  0  0  0  0
    7.3930   -1.6561   -0.8258 H   0  0  0  0  0  0  0  0  0  0  0  0
    7.4494    1.9111   -2.8248 H   0  0  0  0  0  0  0  0  0  0  0  0
    5.7976    1.2528   -2.8441 H   0  0  0  0  0  0  0  0  0  0  0  0
    7.2048    0.1664   -3.0584 H   0  0  0  0  0  0  0  0  0  0  0  0
    5.4569   -5.4492    0.8392 H   0  0  0  0  0  0  0  0  0  0  0  0
    4.0722   -4.5228    0.2719 H   0  0  0  0  0  0  0  0  0  0  0  0
    4.8232   -4.1926    1.8959 H   0  0  0  0  0  0  0  0  0  0  0  0
  1 18  1  0  0  0  0
  1 22  1  0  0  0  0
  2 16  2  0  0  0  0
  3 28  1  0  0  0  0
  3 32  1  0  0  0  0
  4 26  2  0  0  0  0
  5 30  1  0  0  0  0
  5 33  1  0  0  0  0
  6 10  1  0  0  0  0
  7 10  2  0  0  0  0
  8 11  1  0  0  0  0
  8 12  1  0  0  0  0
  8 15  1  0  0  0  0
  9 13  1  0  0  0  0
  9 14  1  0  0  0  0
  9 16  1  0  0  0  0
 10 27  1  0  0  0  0
 11 13  1  0  0  0  0
 11 35  1  0  0  0  0
 11 37  1  0  0  0  0
 12 14  1  0  0  0  0
 12 34  1  0  0  0  0
 12 36  1  0  0  0  0
 13 38  1  0  0  0  0
 13 39  1  0  0  0  0
 14 40  1  0  0  0  0
 14 41  1  0  0  0  0
 15 17  1  0  0  0  0
 15 42  1  0  0  0  0
 15 43  1  0  0  0  0
 16 18  1  0  0  0  0
 17 19  2  0  0  0  0
 17 20  1  0  0  0  0
 18 21  2  0  0  0  0
 19 24  1  0  0  0  0
 19 44  1  0  0  0  0
 20 25  2  0  0  0  0
 20 45  1  0  0  0  0
 21 26  1  0  0  0  0
 21 46  1  0  0  0  0
 22 23  2  0  0  0  0
 22 29  1  0  0  0  0
 23 26  1  0  0  0  0
 23 28  1  0  0  0  0
 24 27  2  0  0  0  0
 24 47  1  0  0  0  0
 25 27  1  0  0  0  0
 25 48  1  0  0  0  0
 28 31  2  0  0  0  0
 29 30  2  0  0  0  0
 29 49  1  0  0  0  0
 30 31  1  0  0  0  0
 31 50  1  0  0  0  0
 32 51  1  0  0  0  0
 32 52  1  0  0  0  0
 32 53  1  0  0  0  0
 33 54  1  0  0  0  0
 33 55  1  0  0  0  0
 33 56  1  0  0  0  0
M  CHG  2   6  -1  10   1
M  END
> <PUBCHEM_COMPOUND_CID>
127040368

> <PUBCHEM_CONFORMER_RMSD>
1

> <PUBCHEM_CONFORMER_DIVERSEORDER>
1
26
20
50
98
59
28
8
46
97
95
40
96
74
42
48
16
99
38
80
68
94
9
83
60
93
14
65
88
56
17
2
77
73
57
5
82
101
54
15
90
39
51
76
86
69
10
41
58
37
85
13
23
52
12
25
71
62
43
70
78
34
44
18
22
61
55
27
87
72
92
29
19
53
6
75
84
35
33
100
49
63
7
47
31
21
66
91
67
89
79
45
81
3
11
32
4
24
36
30
64

> <PUBCHEM_MMFF94_PARTIAL_CHARGES>
40
1 -0.16
10 0.91
11 0.27
12 0.27
13 0.3
14 0.3
15 0.41
16 0.62
17 -0.14
18 0.09
19 -0.15
2 -0.57
20 -0.15
21 -0.14
22 0.08
23 0.09
24 -0.15
25 -0.15
26 0.47
27 0.13
28 0.08
29 -0.15
3 -0.36
30 0.08
31 -0.15
32 0.28
33 0.28
4 -0.57
44 0.15
45 0.15
46 0.15
47 0.15
48 0.15
49 0.15
5 -0.36
50 0.15
6 -0.52
7 -0.52
8 -0.81
9 -0.66

> <PUBCHEM_EFFECTIVE_ROTOR_COUNT>
8.2

> <PUBCHEM_PHARMACOPHORE_FEATURES>
13
1 1 acceptor
1 2 acceptor
1 3 acceptor
1 4 acceptor
1 5 acceptor
1 6 acceptor
1 6 anion
1 7 acceptor
1 8 cation
6 1 18 21 22 23 26 rings
6 17 19 20 24 25 27 rings
6 22 23 28 29 30 31 rings
6 8 9 11 12 13 14 rings

> <PUBCHEM_HEAVY_ATOM_COUNT>
33

> <PUBCHEM_ATOM_DEF_STEREO_COUNT>
0

> <PUBCHEM_ATOM_UDEF_STEREO_COUNT>
0

> <PUBCHEM_BOND_DEF_STEREO_COUNT>
0

> <PUBCHEM_BOND_UDEF_STEREO_COUNT>
0

> <PUBCHEM_ISOTOPIC_ATOM_COUNT>
0

> <PUBCHEM_COMPONENT_COUNT>
1

> <PUBCHEM_CACTVS_TAUTO_COUNT>
1

> <PUBCHEM_CONFORMER_ID>
07927B7000000001

> <PUBCHEM_MMFF94_ENERGY>
116.2554

> <PUBCHEM_FEATURE_SELFOVERLAP>
66.096

> <PUBCHEM_SHAPE_FINGERPRINT>
10 15 11746932101455325449
10258705 36 18334020506166614139
10299344 5 18413671327356905181
10622 236 18124870162926329938
11103572 155 18409166628292753783
117089 54 17700704956599142838
12166972 35 18410011026935747364
12592606 108 17418088863106523599
13533116 47 18411131433652673438
13782708 43 18261100838533459567
14294032 229 17058671576782082225
14347424 109 14979953704937757328
14400156 162 18411142403848798835
14675020 138 18269818944483285432
14933364 13 18335135402102473453
150020 25 17749389252743702431
15183329 4 17704351078673756157
15352257 5 18408601479131012363
15684393 108 18408041810020558519
15807756 48 18338241453605331414
16628084 112 18339357453316845375
17134984 74 18408040698399780834
17324776 126 17029920318579445706
18335252 98 18260829314731826887
18365409 1 16588597529593994539
19301679 30 17631740339697033342
19841028 212 18339075983078610314
20105231 36 17988931089027097711
21150785 3 17240482528925536813
21267235 1 17846500326725995944
21344244 181 18186519899748951635
21781051 124 18130231553052799023
21792938 703 17313396681693478475
23522609 53 18058191529805869721
2747138 104 16950004742928757093
3004659 81 17917993880416492612
312425 54 13254786945802240724
3178227 256 18131911568165321711
34797466 226 17385442132914328956
397638 26 14836405857115807655
4098825 35 18261390005633197237
4149490 64 18333724741711299066
4169191 19 10665230311692064831
437795 160 13686002238811408165
439807 62 18412544292956418523
45270241 37 18335425694557554284
45377200 153 17822299054577976579
46194498 28 17968088716915313988
54039377 194 18201156555957295886
5470011 282 18187365423905263583
6058803 2 16124968742453800661
6679774 75 17703496753427932535
70251023 43 18335415708964241168
9831232 110 18189045396184827086

> <PUBCHEM_SHAPE_MULTIPOLES>
623.1
26.92
3.09
1.52
45.51
3.08
-0.17
11.91
-5.66
-6.65
0.98
-1.26
-0.76
-1.41

> <PUBCHEM_SHAPE_SELFOVERLAP>
1351.259

> <PUBCHEM_SHAPE_VOLUME>
341.6

> <PUBCHEM_COORDINATE_TYPE>
2
5
10

$$$$