168
 OpenBabel03292022023D

168168  0  0  1  0  0  0  0  0999 V2000
    2.4583   -0.5739  -12.1206 C   0  0  0  0  0  0  0  0  0  0  0  0
    2.6090    0.7279  -11.3140 C   0  0  0  0  0  0  0  0  0  0  0  0
    1.6133    1.7694  -11.7965 C   0  0  0  0  0  0  0  0  0  0  0  0
    4.0914    1.2361  -11.2284 C   0  0  2  0  0  0  0  0  0  0  0  0
    4.6305    1.2940  -12.7514 N   0  0  0  0  0  0  0  0  0  0  0  0
    4.5764    2.2494  -13.7995 C   0  0  0  0  0  0  0  0  0  0  0  0
    4.5255    3.4554  -13.5623 O   0  0  0  0  0  0  0  0  0  0  0  0
    4.4231    1.6703  -15.4296 C   0  0  2  0  0  0  0  0  0  0  0  0
    2.9287    1.9537  -15.7059 C   0  0  0  0  0  0  0  0  0  0  0  0
    5.2348    2.0227  -16.6773 O   0  0  0  0  0  0  0  0  0  0  0  0
    4.7997    1.5781  -17.9346 C   0  0  0  0  0  0  0  0  0  0  0  0
    3.7300    0.9765  -18.0631 O   0  0  0  0  0  0  0  0  0  0  0  0
    5.7415    1.6683  -19.2823 C   0  0  1  0  0  0  0  0  0  0  0  0
    4.8379    1.9765  -20.5773 C   0  0  0  0  0  0  0  0  0  0  0  0
    5.0031    3.3708  -21.2251 C   0  0  0  0  0  0  0  0  0  0  0  0
    5.0504    0.9258  -21.6840 C   0  0  0  0  0  0  0  0  0  0  0  0
    7.0157    2.4067  -19.4125 N   0  0  0  0  0  0  0  0  0  0  0  0
    7.9372    2.1082  -20.4363 C   0  0  0  0  0  0  0  0  0  0  0  0
    8.1019    2.9332  -21.3363 O   0  0  0  0  0  0  0  0  0  0  0  0
    8.9815    0.9804  -20.2009 C   0  0  1  0  0  0  0  0  0  0  0  0
    9.0673   -0.0282  -21.3920 C   0  0  0  0  0  0  0  0  0  0  0  0
   10.5073   -0.4311  -21.7763 C   0  0  0  0  0  0  0  0  0  0  0  0
    8.2889   -1.3100  -21.0798 C   0  0  0  0  0  0  0  0  0  0  0  0
   10.3423    1.5282  -20.0648 O   0  0  0  0  0  0  0  0  0  0  0  0
   10.8264    2.4558  -19.1996 C   0  0  0  0  0  0  0  0  0  0  0  0
   12.0344    2.6047  -19.0502 O   0  0  0  0  0  0  0  0  0  0  0  0
    9.7971    3.2369  -18.4160 C   0  0  2  0  0  0  0  0  0  0  0  0
   10.1781    4.5742  -17.7494 C   0  0  0  0  0  0  0  0  0  0  0  0
    8.8848    5.3305  -17.3665 C   0  0  0  0  0  0  0  0  0  0  0  0
   10.9663    5.4699  -18.7143 C   0  0  0  0  0  0  0  0  0  0  0  0
    9.0389    2.3178  -17.5614 N   0  0  0  0  0  0  0  0  0  0  0  0
    9.5052    1.8492  -16.3777 C   0  0  0  0  0  0  0  0  0  0  0  0
    8.9287    2.3046  -15.3828 O   0  0  0  0  0  0  0  0  0  0  0  0
   10.4815    0.6443  -16.2840 C   0  0  2  0  0  0  0  0  0  0  0  0
   10.7951   -0.2341  -17.4737 C   0  0  0  0  0  0  0  0  0  0  0  0
    9.7145   -0.2729  -15.4686 O   0  0  0  0  0  0  0  0  0  0  0  0
    9.7155    0.0157  -14.1592 C   0  0  0  0  0  0  0  0  0  0  0  0
   10.7020    0.4520  -13.5835 O   0  0  0  0  0  0  0  0  0  0  0  0
    8.2974   -0.0887  -13.5554 C   0  0  1  0  0  0  0  0  0  0  0  0
    7.1814   -0.9087  -14.2836 C   0  0  0  0  0  0  0  0  0  0  0  0
    7.1592   -0.9176  -15.8145 C   0  0  0  0  0  0  0  0  0  0  0  0
    6.9673   -2.3308  -13.7760 C   0  0  0  0  0  0  0  0  0  0  0  0
    8.4814   -0.5075  -12.1594 N   0  0  0  0  0  0  0  0  0  0  0  0
    8.8920    0.4525  -11.2384 C   0  0  0  0  0  0  0  0  0  0  0  0
   10.0505    0.4920  -10.8798 O   0  0  0  0  0  0  0  0  0  0  0  0
    7.7940    1.2980  -10.5850 C   0  0  1  0  0  0  0  0  0  0  0  0
    7.4396    2.5925  -11.4230 C   0  0  0  0  0  0  0  0  0  0  0  0
    6.4311    3.6086  -10.8497 C   0  0  0  0  0  0  0  0  0  0  0  0
    8.7005    3.4499  -11.6547 C   0  0  0  0  0  0  0  0  0  0  0  0
    6.7498    0.3200  -10.1884 O   0  0  0  0  0  0  0  0  0  0  0  0
    7.1570   -0.5800   -9.2229 C   0  0  0  0  0  0  0  0  0  0  0  0
    8.3383   -0.6529   -8.8734 O   0  0  0  0  0  0  0  0  0  0  0  0
    6.0985   -1.5314   -8.4880 C   0  0  2  0  0  0  0  0  0  0  0  0
    6.1820   -2.9957   -8.9893 C   0  0  0  0  0  0  0  0  0  0  0  0
    7.6248   -3.5383   -8.8731 C   0  0  0  0  0  0  0  0  0  0  0  0
    5.7554   -3.1320  -10.4373 C   0  0  0  0  0  0  0  0  0  0  0  0
    4.7836   -1.1217   -7.8663 N   0  0  0  0  0  0  0  0  0  0  0  0
    3.4866   -1.1334   -8.3316 C   0  0  0  0  0  0  0  0  0  0  0  0
    3.2118   -1.5933   -9.4267 O   0  0  0  0  0  0  0  0  0  0  0  0
    2.3744   -0.5458   -7.3486 C   0  0  2  0  0  0  0  0  0  0  0  0
    1.0734   -0.2314   -8.0752 C   0  0  0  0  0  0  0  0  0  0  0  0
    2.9143    0.6351   -6.7164 O   0  0  0  0  0  0  0  0  0  0  0  0
    2.2543    1.7371   -6.2239 C   0  0  0  0  0  0  0  0  0  0  0  0
    1.0483    1.8595   -6.1012 O   0  0  0  0  0  0  0  0  0  0  0  0
    3.3321    2.8556   -6.0299 C   0  0  1  0  0  0  0  0  0  0  0  0
    2.9564    4.2109   -5.4177 C   0  0  0  0  0  0  0  0  0  0  0  0
    3.0599    4.2859   -3.8895 C   0  0  0  0  0  0  0  0  0  0  0  0
    3.8949    5.2784   -6.0148 C   0  0  0  0  0  0  0  0  0  0  0  0
    4.4815    2.2612   -5.3739 N   0  0  0  0  0  0  0  0  0  0  0  0
    5.2170    1.3686   -6.0821 C   0  0  0  0  0  0  0  0  0  0  0  0
    5.4260    0.2705   -5.5476 O   0  0  0  0  0  0  0  0  0  0  0  0
    5.8512    1.7506   -7.4685 C   0  0  1  0  0  0  0  0  0  0  0  0
    7.2780    2.3576   -7.1242 C   0  0  0  0  0  0  0  0  0  0  0  0
    8.1380    1.3541   -6.2831 C   0  0  0  0  0  0  0  0  0  0  0  0
    7.2662    3.6551   -6.3241 C   0  0  0  0  0  0  0  0  0  0  0  0
    5.3877    1.7691   -8.9181 O   0  0  0  0  0  0  0  0  0  0  0  0
    4.2345    2.0142   -9.6463 C   0  0  0  0  0  0  0  0  0  0  0  0
    3.2951    2.6353   -9.1572 O   0  0  0  0  0  0  0  0  0  0  0  0
    3.2815   -1.2706  -11.9245 H   0  0  0  0  0  0  0  0  0  0  0  0
    2.4304   -0.3901  -13.1983 H   0  0  0  0  0  0  0  0  0  0  0  0
    1.5294   -1.0853  -11.8445 H   0  0  0  0  0  0  0  0  0  0  0  0
    2.3082    0.4883  -10.2959 H   0  0  0  0  0  0  0  0  0  0  0  0
    1.7021    2.7049  -11.2357 H   0  0  0  0  0  0  0  0  0  0  0  0
    1.7456    1.9959  -12.8533 H   0  0  0  0  0  0  0  0  0  0  0  0
    0.5913    1.3979  -11.6684 H   0  0  0  0  0  0  0  0  0  0  0  0
    4.6199    0.3146  -10.9488 H   0  0  0  0  0  0  0  0  0  0  0  0
    4.6456    0.3517  -13.1116 H   0  0  0  0  0  0  0  0  0  0  0  0
    4.5548    0.5862  -15.3337 H   0  0  0  0  0  0  0  0  0  0  0  0
    2.3441    2.0572  -14.7942 H   0  0  0  0  0  0  0  0  0  0  0  0
    2.4560    1.1295  -16.2482 H   0  0  0  0  0  0  0  0  0  0  0  0
    2.8031    2.8698  -16.2924 H   0  0  0  0  0  0  0  0  0  0  0  0
    6.0526    0.6174  -19.3706 H   0  0  0  0  0  0  0  0  0  0  0  0
    3.7822    1.9129  -20.2933 H   0  0  0  0  0  0  0  0  0  0  0  0
    5.8941    3.4375  -21.8566 H   0  0  0  0  0  0  0  0  0  0  0  0
    5.0368    4.1744  -20.4853 H   0  0  0  0  0  0  0  0  0  0  0  0
    4.1651    3.5786  -21.9018 H   0  0  0  0  0  0  0  0  0  0  0  0
    6.0964    0.8630  -21.9976 H   0  0  0  0  0  0  0  0  0  0  0  0
    4.4655    1.1723  -22.5789 H   0  0  0  0  0  0  0  0  0  0  0  0
    4.7344   -0.0646  -21.3448 H   0  0  0  0  0  0  0  0  0  0  0  0
    6.7965    3.3919  -19.5068 H   0  0  0  0  0  0  0  0  0  0  0  0
    8.7199    0.4497  -19.2862 H   0  0  0  0  0  0  0  0  0  0  0  0
    8.6151    0.4236  -22.2827 H   0  0  0  0  0  0  0  0  0  0  0  0
   11.0386   -0.8778  -20.9275 H   0  0  0  0  0  0  0  0  0  0  0  0
   11.0844    0.4308  -22.1290 H   0  0  0  0  0  0  0  0  0  0  0  0
   10.5081   -1.1662  -22.5891 H   0  0  0  0  0  0  0  0  0  0  0  0
    8.7214   -1.8326  -20.2182 H   0  0  0  0  0  0  0  0  0  0  0  0
    8.3232   -2.0000  -21.9319 H   0  0  0  0  0  0  0  0  0  0  0  0
    7.2414   -1.0968  -20.8622 H   0  0  0  0  0  0  0  0  0  0  0  0
    9.1195    3.5899  -19.1882 H   0  0  0  0  0  0  0  0  0  0  0  0
   10.7717    4.4040  -16.8455 H   0  0  0  0  0  0  0  0  0  0  0  0
    8.2293    5.4577  -18.2385 H   0  0  0  0  0  0  0  0  0  0  0  0
    9.1063    6.3279  -16.9753 H   0  0  0  0  0  0  0  0  0  0  0  0
    8.3129    4.7966  -16.6018 H   0  0  0  0  0  0  0  0  0  0  0  0
   10.4669    5.5392  -19.6882 H   0  0  0  0  0  0  0  0  0  0  0  0
   11.9766    5.0872  -18.8784 H   0  0  0  0  0  0  0  0  0  0  0  0
   11.0641    6.4857  -18.3179 H   0  0  0  0  0  0  0  0  0  0  0  0
    8.1426    2.7494  -17.3592 H   0  0  0  0  0  0  0  0  0  0  0  0
   11.4059    0.9666  -15.7949 H   0  0  0  0  0  0  0  0  0  0  0  0
   11.2815   -1.1570  -17.1337 H   0  0  0  0  0  0  0  0  0  0  0  0
   11.4698    0.2311  -18.1866 H   0  0  0  0  0  0  0  0  0  0  0  0
    9.8838   -0.5692  -17.9727 H   0  0  0  0  0  0  0  0  0  0  0  0
    7.9477    0.9458  -13.5650 H   0  0  0  0  0  0  0  0  0  0  0  0
    6.2573   -0.3869  -14.0176 H   0  0  0  0  0  0  0  0  0  0  0  0
    7.9102   -1.5998  -16.2261 H   0  0  0  0  0  0  0  0  0  0  0  0
    7.2977    0.0825  -16.2309 H   0  0  0  0  0  0  0  0  0  0  0  0
    6.1880   -1.2769  -16.1772 H   0  0  0  0  0  0  0  0  0  0  0  0
    7.8853   -2.7897  -13.3975 H   0  0  0  0  0  0  0  0  0  0  0  0
    6.5487   -2.9892  -14.5469 H   0  0  0  0  0  0  0  0  0  0  0  0
    6.2200   -2.3055  -12.9884 H   0  0  0  0  0  0  0  0  0  0  0  0
    9.2288   -1.1927  -12.1314 H   0  0  0  0  0  0  0  0  0  0  0  0
    8.2454    1.6656   -9.6649 H   0  0  0  0  0  0  0  0  0  0  0  0
    7.0510    2.2998  -12.3972 H   0  0  0  0  0  0  0  0  0  0  0  0
    6.5320    3.7442   -9.7711 H   0  0  0  0  0  0  0  0  0  0  0  0
    5.4096    3.3571  -11.1074 H   0  0  0  0  0  0  0  0  0  0  0  0
    6.5509    4.6047  -11.2969 H   0  0  0  0  0  0  0  0  0  0  0  0
    9.0421    3.8920  -10.7106 H   0  0  0  0  0  0  0  0  0  0  0  0
    8.4819    4.2797  -12.3393 H   0  0  0  0  0  0  0  0  0  0  0  0
    9.5222    2.8824  -12.0947 H   0  0  0  0  0  0  0  0  0  0  0  0
    6.6348   -1.6043   -7.5227 H   0  0  0  0  0  0  0  0  0  0  0  0
    5.5395   -3.6276   -8.3712 H   0  0  0  0  0  0  0  0  0  0  0  0
    8.2968   -3.0582   -9.6075 H   0  0  0  0  0  0  0  0  0  0  0  0
    7.6603   -4.6081   -9.0825 H   0  0  0  0  0  0  0  0  0  0  0  0
    8.0459   -3.3704   -7.8772 H   0  0  0  0  0  0  0  0  0  0  0  0
    6.3407   -2.4419  -11.0439 H   0  0  0  0  0  0  0  0  0  0  0  0
    4.7009   -2.9092  -10.5858 H   0  0  0  0  0  0  0  0  0  0  0  0
    5.9287   -4.1470  -10.8078 H   0  0  0  0  0  0  0  0  0  0  0  0
    4.8601   -0.8993   -6.8744 H   0  0  0  0  0  0  0  0  0  0  0  0
    2.2049   -1.3073   -6.5777 H   0  0  0  0  0  0  0  0  0  0  0  0
    0.2431   -0.1695   -7.3635 H   0  0  0  0  0  0  0  0  0  0  0  0
    0.8144   -0.9835   -8.8236 H   0  0  0  0  0  0  0  0  0  0  0  0
    1.1268    0.7476   -8.5625 H   0  0  0  0  0  0  0  0  0  0  0  0
    3.6398    3.0718   -7.0485 H   0  0  0  0  0  0  0  0  0  0  0  0
    1.9286    4.4659   -5.7100 H   0  0  0  0  0  0  0  0  0  0  0  0
    4.0807    4.0801   -3.5384 H   0  0  0  0  0  0  0  0  0  0  0  0
    2.3821    3.5809   -3.4070 H   0  0  0  0  0  0  0  0  0  0  0  0
    2.8115    5.2953   -3.5414 H   0  0  0  0  0  0  0  0  0  0  0  0
    3.6044    6.2873   -5.7074 H   0  0  0  0  0  0  0  0  0  0  0  0
    3.8850    5.2472   -7.1107 H   0  0  0  0  0  0  0  0  0  0  0  0
    4.9267    5.1187   -5.6879 H   0  0  0  0  0  0  0  0  0  0  0  0
    4.2613    1.8608   -4.4667 H   0  0  0  0  0  0  0  0  0  0  0  0
    6.2120    0.7435   -7.6059 H   0  0  0  0  0  0  0  0  0  0  0  0
    7.8142    2.5615   -8.0438 H   0  0  0  0  0  0  0  0  0  0  0  0
    9.1955    1.6385   -6.2937 H   0  0  0  0  0  0  0  0  0  0  0  0
    8.0798    0.3272   -6.6511 H   0  0  0  0  0  0  0  0  0  0  0  0
    7.8250    1.3265   -5.2316 H   0  0  0  0  0  0  0  0  0  0  0  0
    8.2922    3.9659   -6.1007 H   0  0  0  0  0  0  0  0  0  0  0  0
    6.7654    3.5468   -5.3596 H   0  0  0  0  0  0  0  0  0  0  0  0
    6.7890    4.4599   -6.8943 H   0  0  0  0  0  0  0  0  0  0  0  0
  1  2  1  0  0  0  0
  1 79  1  0  0  0  0
  1 80  1  0  0  0  0
  1 81  1  0  0  0  0
  2  3  1  0  0  0  0
  2  4  1  0  0  0  0
  2 82  1  0  0  0  0
  3 83  1  0  0  0  0
  3 84  1  0  0  0  0
  3 85  1  0  0  0  0
  4  5  1  0  0  0  0
  4 77  1  0  0  0  0
  4 86  1  6  0  0  0
  5  6  1  0  0  0  0
  5 87  1  0  0  0  0
  6  7  2  0  0  0  0
  6  8  1  0  0  0  0
  8 10  1  0  0  0  0
  8  9  1  0  0  0  0
  8 88  1  6  0  0  0
  9 89  1  0  0  0  0
  9 90  1  0  0  0  0
  9 91  1  0  0  0  0
 10 11  1  0  0  0  0
 11 12  2  0  0  0  0
 11 13  1  0  0  0  0
 13 14  1  0  0  0  0
 13 17  1  0  0  0  0
 13 92  1  6  0  0  0
 14 15  1  0  0  0  0
 14 16  1  0  0  0  0
 14 93  1  0  0  0  0
 15 94  1  0  0  0  0
 15 95  1  0  0  0  0
 15 96  1  0  0  0  0
 16 97  1  0  0  0  0
 16 98  1  0  0  0  0
 16 99  1  0  0  0  0
 17 18  1  0  0  0  0
 17100  1  0  0  0  0
 18 19  2  0  0  0  0
 18 20  1  0  0  0  0
 20 21  1  0  0  0  0
 20 24  1  0  0  0  0
 20101  1  1  0  0  0
 21 22  1  0  0  0  0
 21 23  1  0  0  0  0
 21102  1  0  0  0  0
 22103  1  0  0  0  0
 22104  1  0  0  0  0
 22105  1  0  0  0  0
 23106  1  0  0  0  0
 23107  1  0  0  0  0
 23108  1  0  0  0  0
 24 25  1  0  0  0  0
 25 26  2  0  0  0  0
 25 27  1  0  0  0  0
 27 31  1  0  0  0  0
 27 28  1  0  0  0  0
 27109  1  6  0  0  0
 28 29  1  0  0  0  0
 28 30  1  0  0  0  0
 28110  1  0  0  0  0
 29111  1  0  0  0  0
 29112  1  0  0  0  0
 29113  1  0  0  0  0
 30114  1  0  0  0  0
 30115  1  0  0  0  0
 30116  1  0  0  0  0
 31 32  1  0  0  0  0
 31117  1  0  0  0  0
 32 33  2  0  0  0  0
 32 34  1  0  0  0  0
 34 36  1  0  0  0  0
 34 35  1  0  0  0  0
 34118  1  1  0  0  0
 35119  1  0  0  0  0
 35120  1  0  0  0  0
 35121  1  0  0  0  0
 36 37  1  0  0  0  0
 37 38  2  0  0  0  0
 37 39  1  0  0  0  0
 39 40  1  0  0  0  0
 39 43  1  0  0  0  0
 39122  1  1  0  0  0
 40 41  1  0  0  0  0
 40 42  1  0  0  0  0
 40123  1  0  0  0  0
 41124  1  0  0  0  0
 41125  1  0  0  0  0
 41126  1  0  0  0  0
 42127  1  0  0  0  0
 42128  1  0  0  0  0
 42129  1  0  0  0  0
 43 44  1  0  0  0  0
 43130  1  0  0  0  0
 44 45  2  0  0  0  0
 44 46  1  0  0  0  0
 46 47  1  0  0  0  0
 46 50  1  0  0  0  0
 46131  1  1  0  0  0
 47 48  1  0  0  0  0
 47 49  1  0  0  0  0
 47132  1  0  0  0  0
 48133  1  0  0  0  0
 48134  1  0  0  0  0
 48135  1  0  0  0  0
 49136  1  0  0  0  0
 49137  1  0  0  0  0
 49138  1  0  0  0  0
 50 51  1  0  0  0  0
 51 52  2  0  0  0  0
 51 53  1  0  0  0  0
 53 57  1  0  0  0  0
 53 54  1  0  0  0  0
 53139  1  1  0  0  0
 54 55  1  0  0  0  0
 54 56  1  0  0  0  0
 54140  1  0  0  0  0
 55141  1  0  0  0  0
 55142  1  0  0  0  0
 55143  1  0  0  0  0
 56144  1  0  0  0  0
 56145  1  0  0  0  0
 56146  1  0  0  0  0
 57 58  1  0  0  0  0
 57147  1  0  0  0  0
 58 59  2  0  0  0  0
 58 60  1  0  0  0  0
 60 62  1  0  0  0  0
 60 61  1  0  0  0  0
 60148  1  1  0  0  0
 61149  1  0  0  0  0
 61150  1  0  0  0  0
 61151  1  0  0  0  0
 62 63  1  0  0  0  0
 63 64  2  0  0  0  0
 63 65  1  0  0  0  0
 65 66  1  0  0  0  0
 65 69  1  0  0  0  0
 65152  1  6  0  0  0
 66 67  1  0  0  0  0
 66 68  1  0  0  0  0
 66153  1  0  0  0  0
 67154  1  0  0  0  0
 67155  1  0  0  0  0
 67156  1  0  0  0  0
 68157  1  0  0  0  0
 68158  1  0  0  0  0
 68159  1  0  0  0  0
 69 70  1  0  0  0  0
 69160  1  0  0  0  0
 70 71  2  0  0  0  0
 70 72  1  0  0  0  0
 72 73  1  0  0  0  0
 72 76  1  0  0  0  0
 72161  1  1  0  0  0
 73 74  1  0  0  0  0
 73 75  1  0  0  0  0
 73162  1  0  0  0  0
 74163  1  0  0  0  0
 74164  1  0  0  0  0
 74165  1  0  0  0  0
 75166  1  0  0  0  0
 75167  1  0  0  0  0
 75168  1  0  0  0  0
 76 77  1  0  0  0  0
 77 78  2  0  0  0  0
M  END
>  <Energy>
542.42

$$$$