127048633
  -OEChem-03242010103D

 52 54  0     0  0  0  0  0  0999 V2000
    2.0172   -2.8850    1.3224 Cl  0  0  0  0  0  0  0  0  0  0  0  0
    3.8851   -0.5008    0.6309 O   0  0  0  0  0  0  0  0  0  0  0  0
   -0.3108    0.5414    1.3656 O   0  0  0  0  0  0  0  0  0  0  0  0
    2.1899    1.0439    0.2655 N   0  0  0  0  0  0  0  0  0  0  0  0
    0.9990    1.3749   -0.3574 N   0  0  0  0  0  0  0  0  0  0  0  0
    2.7025    2.1021    1.1167 C   0  0  0  0  0  0  0  0  0  0  0  0
    2.8130    1.5859    2.5560 C   0  0  0  0  0  0  0  0  0  0  0  0
    1.7425    3.2953    1.0659 C   0  0  0  0  0  0  0  0  0  0  0  0
    4.0875    2.5286    0.6164 C   0  0  0  0  0  0  0  0  0  0  0  0
    2.8281   -0.1744    0.0940 C   0  0  0  0  0  0  0  0  0  0  0  0
   -0.2004    1.0846    0.2694 C   0  0  0  0  0  0  0  0  0  0  0  0
    2.1887   -1.1670   -0.7900 C   0  0  0  0  0  0  0  0  0  0  0  0
   -1.4239    1.4871   -0.4697 C   0  0  0  0  0  0  0  0  0  0  0  0
   -2.6230    0.7858   -0.3431 C   0  0  0  0  0  0  0  0  0  0  0  0
    1.7875   -2.4193   -0.3247 C   0  0  0  0  0  0  0  0  0  0  0  0
    1.9881   -0.8227   -2.1267 C   0  0  0  0  0  0  0  0  0  0  0  0
   -2.7276   -0.3738    0.5210 C   0  0  0  0  0  0  0  0  0  0  0  0
   -1.3518    2.5996   -1.3081 C   0  0  0  0  0  0  0  0  0  0  0  0
   -3.7499    1.1969   -1.0549 C   0  0  0  0  0  0  0  0  0  0  0  0
   -2.4788    3.0109   -2.0198 C   0  0  0  0  0  0  0  0  0  0  0  0
   -3.6778    2.3095   -1.8932 C   0  0  0  0  0  0  0  0  0  0  0  0
    1.1856   -3.3270   -1.1960 C   0  0  0  0  0  0  0  0  0  0  0  0
    1.3862   -1.7305   -2.9981 C   0  0  0  0  0  0  0  0  0  0  0  0
   -2.4577   -1.6458    0.0164 C   0  0  0  0  0  0  0  0  0  0  0  0
   -3.0982   -0.2174    1.8565 C   0  0  0  0  0  0  0  0  0  0  0  0
    0.9848   -2.9827   -2.5328 C   0  0  0  0  0  0  0  0  0  0  0  0
   -2.5582   -2.7617    0.8474 C   0  0  0  0  0  0  0  0  0  0  0  0
   -3.1987   -1.3331    2.6876 C   0  0  0  0  0  0  0  0  0  0  0  0
   -2.9288   -2.6053    2.1830 C   0  0  0  0  0  0  0  0  0  0  0  0
    0.7651    3.0945    1.5161 H   0  0  0  0  0  0  0  0  0  0  0  0
    1.6094    3.7012    0.0559 H   0  0  0  0  0  0  0  0  0  0  0  0
    4.8398    1.7402    0.7144 H   0  0  0  0  0  0  0  0  0  0  0  0
    4.0521    2.8174   -0.4407 H   0  0  0  0  0  0  0  0  0  0  0  0
    4.4581    3.3909    1.1829 H   0  0  0  0  0  0  0  0  0  0  0  0
    1.8554    1.1918    2.9141 H   0  0  0  0  0  0  0  0  0  0  0  0
    2.1593    4.1217    1.6577 H   0  0  0  0  0  0  0  0  0  0  0  0
    3.5552    0.7901    2.6694 H   0  0  0  0  0  0  0  0  0  0  0  0
    3.1103    2.3937    3.2351 H   0  0  0  0  0  0  0  0  0  0  0  0
    1.0856    1.7799   -1.2834 H   0  0  0  0  0  0  0  0  0  0  0  0
    2.3128    0.1389   -2.5161 H   0  0  0  0  0  0  0  0  0  0  0  0
   -0.4487    3.1929   -1.4146 H   0  0  0  0  0  0  0  0  0  0  0  0
   -4.6934    0.6629   -0.9687 H   0  0  0  0  0  0  0  0  0  0  0  0
   -2.4252    3.8811   -2.6674 H   0  0  0  0  0  0  0  0  0  0  0  0
   -4.5557    2.6308   -2.4461 H   0  0  0  0  0  0  0  0  0  0  0  0
    0.8659   -4.3064   -0.8490 H   0  0  0  0  0  0  0  0  0  0  0  0
    1.2339   -1.4641   -4.0399 H   0  0  0  0  0  0  0  0  0  0  0  0
   -2.1653   -1.7851   -1.0218 H   0  0  0  0  0  0  0  0  0  0  0  0
   -3.3123    0.7670    2.2659 H   0  0  0  0  0  0  0  0  0  0  0  0
    0.5163   -3.6895   -3.2114 H   0  0  0  0  0  0  0  0  0  0  0  0
   -2.3460   -3.7519    0.4549 H   0  0  0  0  0  0  0  0  0  0  0  0
   -3.4868   -1.2115    3.7277 H   0  0  0  0  0  0  0  0  0  0  0  0
   -3.0063   -3.4739    2.8303 H   0  0  0  0  0  0  0  0  0  0  0  0
  1 15  1  0  0  0  0
  2 10  2  0  0  0  0
  3 11  2  0  0  0  0
  4  5  1  0  0  0  0
  4  6  1  0  0  0  0
  4 10  1  0  0  0  0
  5 11  1  0  0  0  0
  5 39  1  0  0  0  0
  6  7  1  0  0  0  0
  6  8  1  0  0  0  0
  6  9  1  0  0  0  0
  7 35  1  0  0  0  0
  7 37  1  0  0  0  0
  7 38  1  0  0  0  0
  8 30  1  0  0  0  0
  8 31  1  0  0  0  0
  8 36  1  0  0  0  0
  9 32  1  0  0  0  0
  9 33  1  0  0  0  0
  9 34  1  0  0  0  0
 10 12  1  0  0  0  0
 11 13  1  0  0  0  0
 12 15  1  0  0  0  0
 12 16  2  0  0  0  0
 13 14  1  0  0  0  0
 13 18  2  0  0  0  0
 14 17  1  0  0  0  0
 14 19  2  0  0  0  0
 15 22  2  0  0  0  0
 16 23  1  0  0  0  0
 16 40  1  0  0  0  0
 17 24  2  0  0  0  0
 17 25  1  0  0  0  0
 18 20  1  0  0  0  0
 18 41  1  0  0  0  0
 19 21  1  0  0  0  0
 19 42  1  0  0  0  0
 20 21  2  0  0  0  0
 20 43  1  0  0  0  0
 21 44  1  0  0  0  0
 22 26  1  0  0  0  0
 22 45  1  0  0  0  0
 23 26  2  0  0  0  0
 23 46  1  0  0  0  0
 24 27  1  0  0  0  0
 24 47  1  0  0  0  0
 25 28  2  0  0  0  0
 25 48  1  0  0  0  0
 26 49  1  0  0  0  0
 27 29  2  0  0  0  0
 27 50  1  0  0  0  0
 28 29  1  0  0  0  0
 28 51  1  0  0  0  0
 29 52  1  0  0  0  0
M  END
> <PUBCHEM_COMPOUND_CID>
127048633

> <PUBCHEM_CONFORMER_RMSD>
0.8

> <PUBCHEM_CONFORMER_DIVERSEORDER>
1
5
31
30
6
28
19
20
27
3
16
18
23
15
22
2
7
25
13
17
14
9
11
29
21
10
4
8
12
26
24

> <PUBCHEM_MMFF94_PARTIAL_CHARGES>
38
1 -0.18
10 0.54
11 0.54
12 0.09
13 0.09
15 0.18
16 -0.15
18 -0.15
19 -0.15
2 -0.57
20 -0.15
21 -0.15
22 -0.15
23 -0.15
24 -0.15
25 -0.15
26 -0.15
27 -0.15
28 -0.15
29 -0.15
3 -0.57
39 0.37
4 -0.36
40 0.15
41 0.15
42 0.15
43 0.15
44 0.15
45 0.15
46 0.15
47 0.15
48 0.15
49 0.15
5 -0.43
50 0.15
51 0.15
52 0.15
6 0.3

> <PUBCHEM_EFFECTIVE_ROTOR_COUNT>
7

> <PUBCHEM_PHARMACOPHORE_FEATURES>
7
1 2 acceptor
1 3 acceptor
1 5 donor
4 6 7 8 9 hydrophobe
6 12 15 16 22 23 26 rings
6 13 14 18 19 20 21 rings
6 17 24 25 27 28 29 rings

> <PUBCHEM_HEAVY_ATOM_COUNT>
29

> <PUBCHEM_ATOM_DEF_STEREO_COUNT>
0

> <PUBCHEM_ATOM_UDEF_STEREO_COUNT>
0

> <PUBCHEM_BOND_DEF_STEREO_COUNT>
0

> <PUBCHEM_BOND_UDEF_STEREO_COUNT>
0

> <PUBCHEM_ISOTOPIC_ATOM_COUNT>
0

> <PUBCHEM_COMPONENT_COUNT>
1

> <PUBCHEM_CACTVS_TAUTO_COUNT>
2

> <PUBCHEM_CONFORMER_ID>
07929BB900000001

> <PUBCHEM_MMFF94_ENERGY>
104.7208

> <PUBCHEM_FEATURE_SELFOVERLAP>
35.522

> <PUBCHEM_SHAPE_FINGERPRINT>
10064457 181 17413047721819070802
10305334 12 15240857485298971826
10675989 125 17038375494150237076
10906281 52 17983291526547968352
11578080 2 18265074486309567389
11582403 64 17183275977829829276
12160290 23 17458632186102666481
12363563 72 17553760655746413830
12553582 1 17769387028057778950
12788726 201 16974780845310542900
13149001 5 18120939399723380679
133893 2 17417812781722545868
14114206 34 17188720557804913918
14659021 117 16543273074373632758
14840074 17 17688596386733124525
15324884 4 18339353184182922852
15635459 17 18341621364954025727
15664445 248 17464294799591606309
17974551 9 17751063743958928610
17980427 23 16298668399355453844
19315092 285 15261948548859099023
20600515 1 17543070083189328158
20691752 17 18045517553297090915
21133410 32 17031405900268971046
21285901 2 18334573569077614319
23559900 14 18187916249688721528
238 59 18059273397327204405
376196 1 17907253798838404797
469060 322 17545854475658101014
513532 50 16469182564950784141
6287921 2 17625859253927163703
9862522 239 17983278602816846736
9981440 41 17913172534180945369

> <PUBCHEM_SHAPE_MULTIPOLES>
576.98
6.73
4.62
2.83
1.01
0.5
-0.39
-1.83
1.69
-0.67
-0.64
0.49
0.97
4.52

> <PUBCHEM_SHAPE_SELFOVERLAP>
1245.231

> <PUBCHEM_SHAPE_VOLUME>
317.1

> <PUBCHEM_COORDINATE_TYPE>
2
5
10

$$$$