76316418
  -OEChem-03242010103D

 48 49  0     0  0  0  0  0  0999 V2000
    3.4149    1.2628    1.9238 Cl  0  0  0  0  0  0  0  0  0  0  0  0
    3.5488   -1.0644   -0.1306 O   0  0  0  0  0  0  0  0  0  0  0  0
   -0.3350   -0.5779    1.8467 O   0  0  0  0  0  0  0  0  0  0  0  0
    1.2601   -1.4373   -0.2586 N   0  0  0  0  0  0  0  0  0  0  0  0
   -0.0179   -0.9321   -0.4232 N   0  0  0  0  0  0  0  0  0  0  0  0
    1.2854   -2.8762   -0.0689 C   0  0  0  0  0  0  0  0  0  0  0  0
    1.9200   -3.1972    1.2893 C   0  0  0  0  0  0  0  0  0  0  0  0
   -0.1494   -3.4123   -0.1108 C   0  0  0  0  0  0  0  0  0  0  0  0
    2.1129   -3.5203   -1.1872 C   0  0  0  0  0  0  0  0  0  0  0  0
    2.4002   -0.6493   -0.2735 C   0  0  0  0  0  0  0  0  0  0  0  0
   -0.7382   -0.5282    0.6875 C   0  0  0  0  0  0  0  0  0  0  0  0
    2.2315    0.7999   -0.4903 C   0  0  0  0  0  0  0  0  0  0  0  0
   -2.0942    0.0106    0.4111 C   0  0  0  0  0  0  0  0  0  0  0  0
   -2.4399    1.3126    0.7729 C   0  0  0  0  0  0  0  0  0  0  0  0
   -3.0290   -0.8091   -0.2210 C   0  0  0  0  0  0  0  0  0  0  0  0
   -4.3096   -0.3269   -0.4912 C   0  0  0  0  0  0  0  0  0  0  0  0
    2.6592    1.7408    0.4463 C   0  0  0  0  0  0  0  0  0  0  0  0
    1.6248    1.2202   -1.6739 C   0  0  0  0  0  0  0  0  0  0  0  0
   -3.7207    1.7949    0.5027 C   0  0  0  0  0  0  0  0  0  0  0  0
   -4.6555    0.9751   -0.1293 C   0  0  0  0  0  0  0  0  0  0  0  0
   -1.4585    2.2115    1.4518 C   0  0  0  0  0  0  0  0  0  0  0  0
    2.4803    3.1019    0.1993 C   0  0  0  0  0  0  0  0  0  0  0  0
    1.4458    2.5813   -1.9209 C   0  0  0  0  0  0  0  0  0  0  0  0
   -5.3097   -1.2026   -1.1677 C   0  0  0  0  0  0  0  0  0  0  0  0
    1.8735    3.5222   -0.9843 C   0  0  0  0  0  0  0  0  0  0  0  0
    1.7328   -3.2312   -2.1742 H   0  0  0  0  0  0  0  0  0  0  0  0
    2.9761   -2.9168    1.3451 H   0  0  0  0  0  0  0  0  0  0  0  0
    1.4021   -2.6802    2.1048 H   0  0  0  0  0  0  0  0  0  0  0  0
    1.8675   -4.2726    1.4965 H   0  0  0  0  0  0  0  0  0  0  0  0
   -0.6654   -3.1966   -1.0541 H   0  0  0  0  0  0  0  0  0  0  0  0
   -0.7652   -3.0866    0.7334 H   0  0  0  0  0  0  0  0  0  0  0  0
   -0.1294   -4.5082   -0.0360 H   0  0  0  0  0  0  0  0  0  0  0  0
    3.1709   -3.2438   -1.1510 H   0  0  0  0  0  0  0  0  0  0  0  0
    2.0701   -4.6140   -1.1235 H   0  0  0  0  0  0  0  0  0  0  0  0
   -0.3658   -0.8720   -1.3749 H   0  0  0  0  0  0  0  0  0  0  0  0
   -2.7674   -1.8259   -0.5028 H   0  0  0  0  0  0  0  0  0  0  0  0
    1.3045    0.5061   -2.4283 H   0  0  0  0  0  0  0  0  0  0  0  0
   -4.0066    2.8064    0.7790 H   0  0  0  0  0  0  0  0  0  0  0  0
   -5.6495    1.3629   -0.3359 H   0  0  0  0  0  0  0  0  0  0  0  0
   -0.5056    2.2245    0.9157 H   0  0  0  0  0  0  0  0  0  0  0  0
   -1.8150    3.2471    1.4837 H   0  0  0  0  0  0  0  0  0  0  0  0
   -1.2923    1.8869    2.4838 H   0  0  0  0  0  0  0  0  0  0  0  0
    2.8077    3.8480    0.9190 H   0  0  0  0  0  0  0  0  0  0  0  0
    0.9776    2.9087   -2.8445 H   0  0  0  0  0  0  0  0  0  0  0  0
   -5.2130   -1.1131   -2.2543 H   0  0  0  0  0  0  0  0  0  0  0  0
   -5.1682   -2.2518   -0.8869 H   0  0  0  0  0  0  0  0  0  0  0  0
   -6.3320   -0.9304   -0.8836 H   0  0  0  0  0  0  0  0  0  0  0  0
    1.7346    4.5820   -1.1770 H   0  0  0  0  0  0  0  0  0  0  0  0
  1 17  1  0  0  0  0
  2 10  2  0  0  0  0
  3 11  2  0  0  0  0
  4  5  1  0  0  0  0
  4  6  1  0  0  0  0
  4 10  1  0  0  0  0
  5 11  1  0  0  0  0
  5 35  1  0  0  0  0
  6  7  1  0  0  0  0
  6  8  1  0  0  0  0
  6  9  1  0  0  0  0
  7 27  1  0  0  0  0
  7 28  1  0  0  0  0
  7 29  1  0  0  0  0
  8 30  1  0  0  0  0
  8 31  1  0  0  0  0
  8 32  1  0  0  0  0
  9 26  1  0  0  0  0
  9 33  1  0  0  0  0
  9 34  1  0  0  0  0
 10 12  1  0  0  0  0
 11 13  1  0  0  0  0
 12 17  1  0  0  0  0
 12 18  2  0  0  0  0
 13 14  2  0  0  0  0
 13 15  1  0  0  0  0
 14 19  1  0  0  0  0
 14 21  1  0  0  0  0
 15 16  2  0  0  0  0
 15 36  1  0  0  0  0
 16 20  1  0  0  0  0
 16 24  1  0  0  0  0
 17 22  2  0  0  0  0
 18 23  1  0  0  0  0
 18 37  1  0  0  0  0
 19 20  2  0  0  0  0
 19 38  1  0  0  0  0
 20 39  1  0  0  0  0
 21 40  1  0  0  0  0
 21 41  1  0  0  0  0
 21 42  1  0  0  0  0
 22 25  1  0  0  0  0
 22 43  1  0  0  0  0
 23 25  2  0  0  0  0
 23 44  1  0  0  0  0
 24 45  1  0  0  0  0
 24 46  1  0  0  0  0
 24 47  1  0  0  0  0
 25 48  1  0  0  0  0
M  END
> <PUBCHEM_COMPOUND_CID>
76316418

> <PUBCHEM_CONFORMER_RMSD>
0.8

> <PUBCHEM_CONFORMER_DIVERSEORDER>
1
18
26
33
36
11
34
30
17
28
15
27
21
24
20
29
25
3
10
16
31
35
5
12
8
23
22
14
32
2
6
4
7
19
13
9

> <PUBCHEM_MMFF94_PARTIAL_CHARGES>
30
1 -0.18
10 0.54
11 0.54
12 0.09
13 0.09
14 -0.14
15 -0.15
16 -0.14
17 0.18
18 -0.15
19 -0.15
2 -0.57
20 -0.15
21 0.14
22 -0.15
23 -0.15
24 0.14
25 -0.15
3 -0.57
35 0.37
36 0.15
37 0.15
38 0.15
39 0.15
4 -0.36
43 0.15
44 0.15
48 0.15
5 -0.43
6 0.3

> <PUBCHEM_EFFECTIVE_ROTOR_COUNT>
6

> <PUBCHEM_PHARMACOPHORE_FEATURES>
6
1 2 acceptor
1 3 acceptor
1 5 donor
4 6 7 8 9 hydrophobe
6 12 17 18 22 23 25 rings
6 13 14 15 16 19 20 rings

> <PUBCHEM_HEAVY_ATOM_COUNT>
25

> <PUBCHEM_ATOM_DEF_STEREO_COUNT>
0

> <PUBCHEM_ATOM_UDEF_STEREO_COUNT>
0

> <PUBCHEM_BOND_DEF_STEREO_COUNT>
0

> <PUBCHEM_BOND_UDEF_STEREO_COUNT>
0

> <PUBCHEM_ISOTOPIC_ATOM_COUNT>
0

> <PUBCHEM_COMPONENT_COUNT>
1

> <PUBCHEM_CACTVS_TAUTO_COUNT>
2

> <PUBCHEM_CONFORMER_ID>
048C7F0200000001

> <PUBCHEM_MMFF94_ENERGY>
84.688

> <PUBCHEM_FEATURE_SELFOVERLAP>
30.446

> <PUBCHEM_SHAPE_FINGERPRINT>
10090160 65 18265886029365181031
11370993 70 18265892638940223309
11578080 2 17264382364117945602
12403259 327 16588016952566879392
12553582 1 17831591868250435075
12788726 201 17254555418599006626
13134695 92 18042125366846773038
13140716 1 18265062503318773626
13617811 41 18196355130924110005
13965767 371 18044637922963274996
14022347 108 8285382571419690945
15420108 30 18198883891044643954
17349148 13 18334852840256268377
17492 89 18270683057043257807
18681886 176 18272081682561308226
192875 21 18334290998162127829
19319366 153 18196072551624606519
20567600 299 18338796702397398077
20642791 105 17760072313186553258
20715895 44 18262501672672191461
22393880 68 18272938189233976573
2255824 54 18409176497451438030
22749437 52 18336267958897524717
23419403 2 17336146427163537466
23558518 356 18119526798166062018
23559900 14 18341607062981799331
238 59 18336283313083471347
350125 39 18048340000067350942
352729 6 18194410115158454530
474 4 18333733550177454485
484989 97 18049449445880908875
57527585 21 15189972700954893000
6287921 2 18411422795665185749
6443956 14 18265619775420199732
6992083 37 17549557214461739777
7364860 26 18341334375001806562
7832392 63 17979364057796126753
81228 2 16963253582595721882
84936 182 18342462568495233281
9709674 26 18339648850058627075
9981440 41 18193276514354216697

> <PUBCHEM_SHAPE_MULTIPOLES>
494.66
7.66
4.56
1.56
10.32
1.93
0.08
-1.63
-0.72
-4.04
-0.65
-0.79
-0.55
-0.89

> <PUBCHEM_SHAPE_SELFOVERLAP>
1042.118

> <PUBCHEM_SHAPE_VOLUME>
279.4

> <PUBCHEM_COORDINATE_TYPE>
2
5
10

$$$$