118737180
  -OEChem-03242010103D

 49 52  0     0  0  0  0  0  0999 V2000
    1.1944   -1.0362   -1.1893 O   0  0  0  0  0  0  0  0  0  0  0  0
   -1.3667    3.7639   -0.1701 O   0  0  0  0  0  0  0  0  0  0  0  0
    4.8080    2.6582    0.4385 O   0  0  0  0  0  0  0  0  0  0  0  0
   -1.4192    1.4227    0.0333 N   0  0  0  0  0  0  0  0  0  0  0  0
   -0.7121   -2.5081    0.2576 N   0  0  0  0  0  0  0  0  0  0  0  0
   -1.0934   -1.3025   -0.1874 N   0  0  0  0  0  0  0  0  0  0  0  0
   -2.6966   -2.4093    0.9669 N   0  0  0  0  0  0  0  0  0  0  0  0
   -1.6302   -3.1995    0.9472 N   0  0  0  0  0  0  0  0  0  0  0  0
   -3.2500   -0.1834    0.0890 C   0  0  0  0  0  0  0  0  0  0  0  0
   -2.7848    1.1262   -0.0291 C   0  0  0  0  0  0  0  0  0  0  0  0
   -2.3438   -1.2852    0.2813 C   0  0  0  0  0  0  0  0  0  0  0  0
    0.5606   -3.0127    0.0199 C   0  0  0  0  0  0  0  0  0  0  0  0
   -4.6182   -0.4462    0.0215 C   0  0  0  0  0  0  0  0  0  0  0  0
   -3.6877    2.1730   -0.2148 C   0  0  0  0  0  0  0  0  0  0  0  0
    0.6722    2.6739    0.0881 C   0  0  0  0  0  0  0  0  0  0  0  0
   -0.8089    2.6797   -0.0381 C   0  0  0  0  0  0  0  0  0  0  0  0
   -5.5212    0.6007   -0.1641 C   0  0  0  0  0  0  0  0  0  0  0  0
    1.4981   -2.2721   -0.6998 C   0  0  0  0  0  0  0  0  0  0  0  0
   -5.0560    1.9103   -0.2823 C   0  0  0  0  0  0  0  0  0  0  0  0
    0.8961   -4.2748    0.5099 C   0  0  0  0  0  0  0  0  0  0  0  0
    1.3084    1.6536    0.7949 C   0  0  0  0  0  0  0  0  0  0  0  0
    1.4258    3.6893   -0.5011 C   0  0  0  0  0  0  0  0  0  0  0  0
    2.7714   -2.7935   -0.9293 C   0  0  0  0  0  0  0  0  0  0  0  0
    2.1693   -4.7963    0.2804 C   0  0  0  0  0  0  0  0  0  0  0  0
    3.1070   -4.0557   -0.4392 C   0  0  0  0  0  0  0  0  0  0  0  0
    3.4518    2.6636    0.3236 C   0  0  0  0  0  0  0  0  0  0  0  0
    2.6982    1.6484    0.9127 C   0  0  0  0  0  0  0  0  0  0  0  0
    2.8157    3.6841   -0.3832 C   0  0  0  0  0  0  0  0  0  0  0  0
    2.2190   -0.3572   -1.9118 C   0  0  0  0  0  0  0  0  0  0  0  0
    5.3927    1.5849    1.1750 C   0  0  0  0  0  0  0  0  0  0  0  0
   -5.0074   -1.4582    0.1050 H   0  0  0  0  0  0  0  0  0  0  0  0
   -0.8108    0.6161    0.1136 H   0  0  0  0  0  0  0  0  0  0  0  0
   -3.4189    3.2131   -0.3229 H   0  0  0  0  0  0  0  0  0  0  0  0
   -6.5864    0.3962   -0.2184 H   0  0  0  0  0  0  0  0  0  0  0  0
   -5.7604    2.7241   -0.4287 H   0  0  0  0  0  0  0  0  0  0  0  0
    0.1964   -4.8850    1.0751 H   0  0  0  0  0  0  0  0  0  0  0  0
    0.7615    0.8654    1.3035 H   0  0  0  0  0  0  0  0  0  0  0  0
    0.9497    4.4902   -1.0606 H   0  0  0  0  0  0  0  0  0  0  0  0
    3.5516   -2.2810   -1.4810 H   0  0  0  0  0  0  0  0  0  0  0  0
    2.4311   -5.7791    0.6616 H   0  0  0  0  0  0  0  0  0  0  0  0
    4.0979   -4.4632   -0.6179 H   0  0  0  0  0  0  0  0  0  0  0  0
    3.1271    0.8303    1.4814 H   0  0  0  0  0  0  0  0  0  0  0  0
    3.3978    4.4768   -0.8454 H   0  0  0  0  0  0  0  0  0  0  0  0
    1.8159    0.6161   -2.2097 H   0  0  0  0  0  0  0  0  0  0  0  0
    2.4710   -0.8876   -2.8368 H   0  0  0  0  0  0  0  0  0  0  0  0
    3.1032   -0.1666   -1.2961 H   0  0  0  0  0  0  0  0  0  0  0  0
    5.0791    1.5993    2.2243 H   0  0  0  0  0  0  0  0  0  0  0  0
    5.2009    0.6179    0.6975 H   0  0  0  0  0  0  0  0  0  0  0  0
    6.4768    1.7377    1.1632 H   0  0  0  0  0  0  0  0  0  0  0  0
  1 18  1  0  0  0  0
  1 29  1  0  0  0  0
  2 16  2  0  0  0  0
  3 26  1  0  0  0  0
  3 30  1  0  0  0  0
  4 10  1  0  0  0  0
  4 16  1  0  0  0  0
  4 32  1  0  0  0  0
  5  6  1  0  0  0  0
  5  8  1  0  0  0  0
  5 12  1  0  0  0  0
  6 11  2  0  0  0  0
  7  8  2  0  0  0  0
  7 11  1  0  0  0  0
  9 10  1  0  0  0  0
  9 11  1  0  0  0  0
  9 13  2  0  0  0  0
 10 14  2  0  0  0  0
 12 18  1  0  0  0  0
 12 20  2  0  0  0  0
 13 17  1  0  0  0  0
 13 31  1  0  0  0  0
 14 19  1  0  0  0  0
 14 33  1  0  0  0  0
 15 16  1  0  0  0  0
 15 21  2  0  0  0  0
 15 22  1  0  0  0  0
 17 19  2  0  0  0  0
 17 34  1  0  0  0  0
 18 23  2  0  0  0  0
 19 35  1  0  0  0  0
 20 24  1  0  0  0  0
 20 36  1  0  0  0  0
 21 27  1  0  0  0  0
 21 37  1  0  0  0  0
 22 28  2  0  0  0  0
 22 38  1  0  0  0  0
 23 25  1  0  0  0  0
 23 39  1  0  0  0  0
 24 25  2  0  0  0  0
 24 40  1  0  0  0  0
 25 41  1  0  0  0  0
 26 27  2  0  0  0  0
 26 28  1  0  0  0  0
 27 42  1  0  0  0  0
 28 43  1  0  0  0  0
 29 44  1  0  0  0  0
 29 45  1  0  0  0  0
 29 46  1  0  0  0  0
 30 47  1  0  0  0  0
 30 48  1  0  0  0  0
 30 49  1  0  0  0  0
M  END
> <PUBCHEM_COMPOUND_CID>
118737180

> <PUBCHEM_CONFORMER_RMSD>
0.8

> <PUBCHEM_CONFORMER_DIVERSEORDER>
1
110
54
12
55
40
88
28
32
104
30
108
95
72
10
89
50
77
5
74
65
80
102
105
107
6
17
109
19
99
78
25
114
62
111
43
94
68
53
90
101
56
103
51
13
34
46
64
66
100
96
61
120
14
60
16
118
21
42
58
26
91
93
112
22
116
81
79
119
3
85
115
38
76
87
117
59
83
31
7
113
35
57
86
39
70
15
47
98
45
41
48
49
73
63
23
20
71
106
11
82
75
92
69
8
4
44
37
2
29
36
52
84
18
67
33
9
24
97
27

> <PUBCHEM_MMFF94_PARTIAL_CHARGES>
43
1 -0.36
10 0.12
11 0.46
12 -0.02
13 -0.15
14 -0.15
15 0.09
16 0.54
17 -0.15
18 0.08
19 -0.15
2 -0.57
20 -0.15
21 -0.15
22 -0.15
23 -0.15
24 -0.15
25 -0.15
26 0.08
27 -0.15
28 -0.15
29 0.28
3 -0.36
30 0.28
31 0.15
32 0.37
33 0.15
34 0.15
35 0.15
36 0.15
37 0.15
38 0.15
39 0.15
4 -0.55
40 0.15
41 0.15
42 0.15
43 0.15
5 0.86
6 -0.71
7 -0.23
8 -0.42
9 0.05

> <PUBCHEM_EFFECTIVE_ROTOR_COUNT>
7

> <PUBCHEM_PHARMACOPHORE_FEATURES>
9
1 1 acceptor
1 2 acceptor
1 3 acceptor
1 4 donor
3 6 7 11 cation
5 5 6 7 8 11 rings
6 12 18 20 23 24 25 rings
6 15 21 22 26 27 28 rings
6 9 10 13 14 17 19 rings

> <PUBCHEM_HEAVY_ATOM_COUNT>
30

> <PUBCHEM_ATOM_DEF_STEREO_COUNT>
0

> <PUBCHEM_ATOM_UDEF_STEREO_COUNT>
0

> <PUBCHEM_BOND_DEF_STEREO_COUNT>
0

> <PUBCHEM_BOND_UDEF_STEREO_COUNT>
0

> <PUBCHEM_ISOTOPIC_ATOM_COUNT>
0

> <PUBCHEM_COMPONENT_COUNT>
1

> <PUBCHEM_CACTVS_TAUTO_COUNT>
6

> <PUBCHEM_CONFORMER_ID>
0713C91C00000001

> <PUBCHEM_MMFF94_ENERGY>
112.6348

> <PUBCHEM_FEATURE_SELFOVERLAP>
45.672

> <PUBCHEM_SHAPE_FINGERPRINT>
10050765 1 18339077096192148477
10074138 170 17622692708179753416
10616163 171 18120373421860733465
10940486 97 17829889094365135044
1100329 8 17547295506027231153
11513181 2 18201714042242721359
12104220 1 17040344719729122486
12156800 1 16227201221291055923
12788726 201 17545338379651189670
13140716 1 18339370758903514433
13402501 40 18413108385381962940
13726171 33 17616565142098856060
138480 1 18194682570761553877
14028597 1 17774741834938439377
14251757 5 17616832354031878668
14394314 77 17690289205127553608
14647877 51 18268145358108687128
15230672 131 18336549439155633532
15320294 125 17970602265079200760
15320467 1 18338233765475973936
15400415 2 18266457783512072441
15403338 16 17242982770842956762
15439362 3 18337948987886456929
15927050 60 18341050804777433407
16719943 64 18266737068576655896
16728300 4 17898261018110136970
17093844 170 18412266146885765636
18336668 15 17538298240952413206
19930381 70 18409728418203169137
20531524 4 18051720989785322524
20642791 35 18268149747871400605
20764821 26 18338525260326497774
20775438 99 18267845307984835343
21344244 246 18339625816470181511
229767 44 18266719442431637952
23559900 14 18266735771364436151
238918 7 18129100198822021452
3027735 51 18054502788748261727
3298306 158 18342460395236305404
4093350 32 17274840038669662541
463206 1 17329155671677729689
508706 21 17981336899589373878
5265222 85 18194126450028647340
532947 4 18410853235857562797
5385378 56 18413395328411165633
6669772 16 18411131437995139717
9981440 41 18265329684829063179

> <PUBCHEM_SHAPE_MULTIPOLES>
574.87
9.04
7.16
1.01
6.57
2.62
-0.19
-3.4
0.55
-7.95
0.57
-0.77
0.13
1.56

> <PUBCHEM_SHAPE_SELFOVERLAP>
1266.915

> <PUBCHEM_SHAPE_VOLUME>
309.3

> <PUBCHEM_COORDINATE_TYPE>
2
5
10

$$$$