28
 OpenBabel03302012423D

 70 73  0  0  1  0  0  0  0  0999 V2000
  -12.0827   -6.2310   -3.8799 C   0  0  0  0  0  0  0  0  0  0  0  0
  -10.8791   -5.5959   -3.6524 O   0  0  0  0  0  0  0  0  0  0  0  0
  -10.7073   -4.3078   -3.2440 C   0  0  0  0  0  0  0  0  0  0  0  0
  -11.8071   -3.4470   -3.0737 C   0  0  0  0  0  0  0  0  0  0  0  0
  -11.6207   -2.1463   -2.6185 C   0  0  0  0  0  0  0  0  0  0  0  0
  -10.3418   -1.6861   -2.3122 C   0  0  0  0  0  0  0  0  0  0  0  0
   -9.2213   -2.5234   -2.4677 C   0  0  0  0  0  0  0  0  0  0  0  0
   -9.3978   -3.8324   -2.9511 C   0  0  0  0  0  0  0  0  0  0  0  0
   -8.2051   -4.6992   -3.1347 C   0  0  0  0  0  0  0  0  0  0  0  0
   -8.3596   -5.7698   -3.6942 O   0  0  0  0  0  0  0  0  0  0  0  0
   -6.8390   -4.2653   -2.6792 C   0  0  0  0  0  0  0  0  0  0  0  0
   -5.7147   -5.1403   -2.7059 C   0  0  0  0  0  0  0  0  0  0  0  0
   -5.7938   -6.4325   -3.0992 O   0  0  0  0  0  0  0  0  0  0  0  0
   -4.4509   -4.7059   -2.2645 C   0  0  0  0  0  0  0  0  0  0  0  0
   -4.2706   -3.3737   -1.8044 C   0  0  0  0  0  0  0  0  0  0  0  0
   -5.3935   -2.5085   -1.7432 C   0  0  0  0  0  0  0  0  0  0  0  0
   -5.2610   -1.2498   -1.2632 O   0  0  0  0  0  0  0  0  0  0  0  0
   -6.6727   -2.9485   -2.1812 C   0  0  0  0  0  0  0  0  0  0  0  0
   -7.8637   -2.0371   -2.1089 C   0  0  0  0  0  0  0  0  0  0  0  0
   -7.7373   -0.8875   -1.7115 O   0  0  0  0  0  0  0  0  0  0  0  0
   -2.8928   -2.8837   -1.3409 C   0  0  0  0  0  0  0  0  0  0  0  0
   -1.7316   -3.8548   -1.7072 C   0  0  1  0  0  0  0  0  0  0  0  0
   -1.4356   -3.8031   -3.0929 O   0  0  0  0  0  0  0  0  0  0  0  0
   -0.4481   -3.5267   -0.9566 C   0  0  0  0  0  0  0  0  0  0  0  0
    0.5547   -3.2160   -1.5840 O   0  0  0  0  0  0  0  0  0  0  0  0
   -0.3309   -3.6794    0.5381 C   0  0  0  0  0  0  0  0  0  0  0  0
    0.6013   -4.6841    0.8381 O   0  0  0  0  0  0  0  0  0  0  0  0
   -2.1758   -5.2624   -1.3240 C   0  0  0  0  0  0  0  0  0  0  0  0
   -3.3188   -5.7356   -2.2313 C   0  0  2  0  0  0  0  0  0  0  0  0
   -2.9171   -6.0333   -3.5727 O   0  0  0  0  0  0  0  0  0  0  0  0
   -1.9444   -7.0817   -3.6844 C   0  0  1  0  0  0  0  0  0  0  0  0
   -2.4245   -8.4500   -3.1411 C   0  0  0  0  0  0  0  0  0  0  0  0
   -3.6053   -8.9210   -3.9932 C   0  0  2  0  0  0  0  0  0  0  0  0
   -4.1355  -10.1905   -3.4999 N   0  0  0  0  0  0  0  0  0  0  0  0
   -3.1656   -8.9945   -5.4692 C   0  0  2  0  0  0  0  0  0  0  0  0
   -2.2408  -10.0401   -5.6735 O   0  0  0  0  0  0  0  0  0  0  0  0
   -2.5915   -7.6102   -5.8870 C   0  0  2  0  0  0  0  0  0  0  0  0
   -2.0725   -7.6455   -7.3260 C   0  0  0  0  0  0  0  0  0  0  0  0
   -1.5254   -7.2144   -5.0360 O   0  0  0  0  0  0  0  0  0  0  0  0
    0.8169    0.0105   -0.0305 Cl  0  0  0  0  0  0  0  0  0  0  0  0
  -11.8893   -7.2923   -4.1406 H   0  0  0  0  0  0  0  0  0  0  0  0
  -12.6198   -5.7472   -4.7217 H   0  0  0  0  0  0  0  0  0  0  0  0
  -12.7066   -6.2085   -2.9602 H   0  0  0  0  0  0  0  0  0  0  0  0
  -12.8146   -3.7783   -3.2861 H   0  0  0  0  0  0  0  0  0  0  0  0
  -12.4761   -1.4958   -2.4905 H   0  0  0  0  0  0  0  0  0  0  0  0
  -10.2323   -0.6741   -1.9446 H   0  0  0  0  0  0  0  0  0  0  0  0
   -6.5682   -6.9542   -3.3198 H   0  0  0  0  0  0  0  0  0  0  0  0
   -4.4447   -0.8773   -0.9075 H   0  0  0  0  0  0  0  0  0  0  0  0
   -2.9604   -2.7431   -0.2403 H   0  0  0  0  0  0  0  0  0  0  0  0
   -2.6425   -1.9039   -1.8015 H   0  0  0  0  0  0  0  0  0  0  0  0
   -2.2351   -3.5050   -3.6039 H   0  0  0  0  0  0  0  0  0  0  0  0
   -1.3020   -3.9202    1.0196 H   0  0  0  0  0  0  0  0  0  0  0  0
    0.0159   -2.7257    0.9808 H   0  0  0  0  0  0  0  0  0  0  0  0
    0.1492   -5.5539    0.6669 H   0  0  0  0  0  0  0  0  0  0  0  0
   -2.5530   -5.2517   -0.2776 H   0  0  0  0  0  0  0  0  0  0  0  0
   -1.3372   -5.9815   -1.3069 H   0  0  0  0  0  0  0  0  0  0  0  0
   -3.7438   -6.6307   -1.7365 H   0  0  0  0  0  0  0  0  0  0  0  0
   -1.0180   -6.8002   -3.1533 H   0  0  0  0  0  0  0  0  0  0  0  0
   -2.6961   -8.4074   -2.0691 H   0  0  0  0  0  0  0  0  0  0  0  0
   -1.5897   -9.1787   -3.1973 H   0  0  0  0  0  0  0  0  0  0  0  0
   -4.4092   -8.1687   -3.9140 H   0  0  0  0  0  0  0  0  0  0  0  0
   -3.4135  -10.9427   -3.5645 H   0  0  0  0  0  0  0  0  0  0  0  0
   -4.9711  -10.4598   -4.0681 H   0  0  0  0  0  0  0  0  0  0  0  0
   -4.0532   -9.2136   -6.1015 H   0  0  0  0  0  0  0  0  0  0  0  0
   -1.3556   -9.7600   -5.3271 H   0  0  0  0  0  0  0  0  0  0  0  0
   -3.3989   -6.8430   -5.8562 H   0  0  0  0  0  0  0  0  0  0  0  0
   -1.2464   -8.3820   -7.4270 H   0  0  0  0  0  0  0  0  0  0  0  0
   -1.6786   -6.6459   -7.6083 H   0  0  0  0  0  0  0  0  0  0  0  0
   -2.8888   -7.9189   -8.0266 H   0  0  0  0  0  0  0  0  0  0  0  0
    2.1924   -0.0095   -0.0259 H   0  0  0  0  0  0  0  0  0  0  0  0
  1  2  1  0  0  0  0
  1 41  1  0  0  0  0
  1 42  1  0  0  0  0
  1 43  1  0  0  0  0
  2  3  1  0  0  0  0
  3  4  1  0  0  0  0
  3  8  2  0  0  0  0
  4  5  2  0  0  0  0
  4 44  1  0  0  0  0
  5  6  1  0  0  0  0
  5 45  1  0  0  0  0
  6  7  2  0  0  0  0
  6 46  1  0  0  0  0
  7  8  1  0  0  0  0
  7 19  1  0  0  0  0
  8  9  1  0  0  0  0
  9 10  2  0  0  0  0
  9 11  1  0  0  0  0
 11 12  1  0  0  0  0
 11 18  2  0  0  0  0
 12 13  1  0  0  0  0
 12 14  2  0  0  0  0
 13 47  1  0  0  0  0
 14 15  1  0  0  0  0
 14 29  1  0  0  0  0
 15 16  2  0  0  0  0
 15 21  1  0  0  0  0
 16 17  1  0  0  0  0
 16 18  1  0  0  0  0
 17 48  1  0  0  0  0
 18 19  1  0  0  0  0
 19 20  2  0  0  0  0
 21 22  1  0  0  0  0
 21 49  1  0  0  0  0
 21 50  1  0  0  0  0
 22 28  1  0  0  0  0
 22 24  1  1  0  0  0
 22 23  1  0  0  0  0
 23 51  1  0  0  0  0
 24 25  2  0  0  0  0
 24 26  1  0  0  0  0
 26 27  1  0  0  0  0
 26 52  1  0  0  0  0
 26 53  1  0  0  0  0
 27 54  1  0  0  0  0
 28 29  1  0  0  0  0
 28 55  1  0  0  0  0
 28 56  1  0  0  0  0
 29 30  1  0  0  0  0
 29 57  1  1  0  0  0
 31 32  1  0  0  0  0
 31 39  1  0  0  0  0
 31 30  1  0  0  0  0
 31 58  1  1  0  0  0
 32 33  1  0  0  0  0
 32 59  1  0  0  0  0
 32 60  1  0  0  0  0
 33 34  1  0  0  0  0
 33 35  1  0  0  0  0
 33 61  1  1  0  0  0
 34 62  1  0  0  0  0
 34 63  1  0  0  0  0
 35 36  1  0  0  0  0
 35 37  1  0  0  0  0
 35 64  1  6  0  0  0
 36 65  1  0  0  0  0
 37 38  1  0  0  0  0
 37 39  1  0  0  0  0
 37 66  1  1  0  0  0
 38 67  1  0  0  0  0
 38 68  1  0  0  0  0
 38 69  1  0  0  0  0
 40 70  1  0  0  0  0
M  END
$$$$