148201
  -OEChem-03242010103D

 86 91  0     1  0  0  0  0  0999 V2000
    5.9104    1.7921    1.9090 O   0  0  0  0  0  0  0  0  0  0  0  0
    6.1228    2.2869   -0.8157 O   0  0  0  0  0  0  0  0  0  0  0  0
   -2.4368   -0.9794   -1.6491 O   0  0  0  0  0  0  0  0  0  0  0  0
   -7.7760   -1.7585    0.2351 O   0  0  0  0  0  0  0  0  0  0  0  0
   -7.9138    0.9547    0.8197 O   0  0  0  0  0  0  0  0  0  0  0  0
   -4.0913    3.5105   -0.6214 O   0  0  0  0  0  0  0  0  0  0  0  0
    3.6178   -3.5590    0.0229 N   0  0  2  0  0  0  0  0  0  0  0  0
   -2.5773   -2.4407    0.1874 N   0  0  0  0  0  0  0  0  0  0  0  0
   -3.2248    1.4051   -0.0366 N   0  0  0  0  0  0  0  0  0  0  0  0
   -0.2571    5.0145   -1.2059 N   0  0  0  0  0  0  0  0  0  0  0  0
    4.4066   -3.6220   -1.2137 C   0  0  0  0  0  0  0  0  0  0  0  0
    4.3296   -2.7664    1.0410 C   0  0  0  0  0  0  0  0  0  0  0  0
    4.5117   -2.2260   -1.8360 C   0  0  0  0  0  0  0  0  0  0  0  0
    4.7775   -1.4125    0.5398 C   0  0  0  0  0  0  0  0  0  0  0  0
    4.9077   -1.1689   -0.8383 C   0  0  0  0  0  0  0  0  0  0  0  0
    3.3367   -4.9023    0.5282 C   0  0  0  0  0  0  0  0  0  0  0  0
    2.1771   -5.5432   -0.2352 C   0  0  0  0  0  0  0  0  0  0  0  0
    5.1292   -0.4104    1.4543 C   0  0  0  0  0  0  0  0  0  0  0  0
    5.3514    0.0836   -1.2820 C   0  0  0  0  0  0  0  0  0  0  0  0
    5.5795    0.8301    1.0029 C   0  0  0  0  0  0  0  0  0  0  0  0
    5.6883    1.0775   -0.3636 C   0  0  0  0  0  0  0  0  0  0  0  0
    0.9184   -4.7205   -0.1225 C   0  0  0  0  0  0  0  0  0  0  0  0
    0.6494   -3.7252   -1.0620 C   0  0  0  0  0  0  0  0  0  0  0  0
    0.0226   -4.9556    0.9204 C   0  0  0  0  0  0  0  0  0  0  0  0
   -0.5156   -2.9650   -0.9586 C   0  0  0  0  0  0  0  0  0  0  0  0
   -1.1423   -4.1954    1.0239 C   0  0  0  0  0  0  0  0  0  0  0  0
   -1.4114   -3.2001    0.0843 C   0  0  0  0  0  0  0  0  0  0  0  0
    5.7705    1.4585    3.2886 C   0  0  0  0  0  0  0  0  0  0  0  0
    6.2057    2.4590   -2.2291 C   0  0  0  0  0  0  0  0  0  0  0  0
   -3.0117   -1.4084   -0.6544 C   0  0  0  0  0  0  0  0  0  0  0  0
   -4.2938   -0.7652   -0.2647 C   0  0  0  0  0  0  0  0  0  0  0  0
   -4.3628    0.5966    0.0293 C   0  0  0  0  0  0  0  0  0  0  0  0
   -5.4428   -1.5531   -0.1945 C   0  0  0  0  0  0  0  0  0  0  0  0
   -5.5809    1.1706    0.3935 C   0  0  0  0  0  0  0  0  0  0  0  0
   -6.6607   -0.9790    0.1696 C   0  0  0  0  0  0  0  0  0  0  0  0
   -6.7298    0.3828    0.4636 C   0  0  0  0  0  0  0  0  0  0  0  0
   -3.1545    2.7680   -0.3471 C   0  0  0  0  0  0  0  0  0  0  0  0
   -1.7851    3.3461   -0.3642 C   0  0  0  0  0  0  0  0  0  0  0  0
    0.5184    3.3643    0.3695 C   0  0  0  0  0  0  0  0  0  0  0  0
   -0.7650    2.8023    0.4030 C   0  0  0  0  0  0  0  0  0  0  0  0
    0.7311    4.4850   -0.4603 C   0  0  0  0  0  0  0  0  0  0  0  0
   -1.4813    4.4428   -1.1447 C   0  0  0  0  0  0  0  0  0  0  0  0
    1.5727    2.8375    1.1347 C   0  0  0  0  0  0  0  0  0  0  0  0
    2.0062    5.0424   -0.4936 C   0  0  0  0  0  0  0  0  0  0  0  0
    2.8379    3.4152    1.0823 C   0  0  0  0  0  0  0  0  0  0  0  0
    3.0546    4.5189    0.2669 C   0  0  0  0  0  0  0  0  0  0  0  0
   -7.6201   -3.1406   -0.0806 C   0  0  0  0  0  0  0  0  0  0  0  0
   -7.8990    2.3522    1.1042 C   0  0  0  0  0  0  0  0  0  0  0  0
    3.9465   -4.2796   -1.9589 H   0  0  0  0  0  0  0  0  0  0  0  0
    5.4112   -4.0199   -1.0134 H   0  0  0  0  0  0  0  0  0  0  0  0
    5.2171   -3.3042    1.4010 H   0  0  0  0  0  0  0  0  0  0  0  0
    3.6556   -2.6119    1.8931 H   0  0  0  0  0  0  0  0  0  0  0  0
    3.5423   -1.9425   -2.2656 H   0  0  0  0  0  0  0  0  0  0  0  0
    5.2430   -2.2590   -2.6526 H   0  0  0  0  0  0  0  0  0  0  0  0
    4.2242   -5.5464    0.4827 H   0  0  0  0  0  0  0  0  0  0  0  0
    3.0469   -4.8506    1.5868 H   0  0  0  0  0  0  0  0  0  0  0  0
    2.4225   -5.7071   -1.2910 H   0  0  0  0  0  0  0  0  0  0  0  0
    1.9913   -6.5452    0.1732 H   0  0  0  0  0  0  0  0  0  0  0  0
    5.0304   -0.6627    2.5051 H   0  0  0  0  0  0  0  0  0  0  0  0
    5.4103    0.2193   -2.3570 H   0  0  0  0  0  0  0  0  0  0  0  0
    1.3323   -3.5376   -1.8861 H   0  0  0  0  0  0  0  0  0  0  0  0
    0.2218   -5.7269    1.6596 H   0  0  0  0  0  0  0  0  0  0  0  0
   -0.6533   -2.2157   -1.7251 H   0  0  0  0  0  0  0  0  0  0  0  0
   -1.8314   -4.3892    1.8419 H   0  0  0  0  0  0  0  0  0  0  0  0
    6.0730    2.3393    3.8646 H   0  0  0  0  0  0  0  0  0  0  0  0
    6.4436    0.6440    3.5774 H   0  0  0  0  0  0  0  0  0  0  0  0
    4.7272    1.2518    3.5510 H   0  0  0  0  0  0  0  0  0  0  0  0
    6.5693    3.4762   -2.4084 H   0  0  0  0  0  0  0  0  0  0  0  0
    5.2207    2.3867   -2.7028 H   0  0  0  0  0  0  0  0  0  0  0  0
    6.9366    1.7772   -2.6773 H   0  0  0  0  0  0  0  0  0  0  0  0
   -3.1732   -2.6677    0.9810 H   0  0  0  0  0  0  0  0  0  0  0  0
   -5.3330   -2.6041   -0.4407 H   0  0  0  0  0  0  0  0  0  0  0  0
   -5.5925    2.2193    0.6596 H   0  0  0  0  0  0  0  0  0  0  0  0
   -2.3469    0.8931   -0.0559 H   0  0  0  0  0  0  0  0  0  0  0  0
   -0.9455    1.9548    1.0603 H   0  0  0  0  0  0  0  0  0  0  0  0
   -2.2256    4.9197   -1.7752 H   0  0  0  0  0  0  0  0  0  0  0  0
    1.4136    1.9764    1.7801 H   0  0  0  0  0  0  0  0  0  0  0  0
    2.2017    5.9083   -1.1236 H   0  0  0  0  0  0  0  0  0  0  0  0
    3.6401    3.0213    1.6929 H   0  0  0  0  0  0  0  0  0  0  0  0
    4.0378    4.9783    0.2236 H   0  0  0  0  0  0  0  0  0  0  0  0
   -8.6050   -3.6078    0.0248 H   0  0  0  0  0  0  0  0  0  0  0  0
   -6.9531   -3.6442    0.6274 H   0  0  0  0  0  0  0  0  0  0  0  0
   -7.3108   -3.2849   -1.1215 H   0  0  0  0  0  0  0  0  0  0  0  0
   -8.9251    2.6390    1.3572 H   0  0  0  0  0  0  0  0  0  0  0  0
   -7.6139    2.9419    0.2261 H   0  0  0  0  0  0  0  0  0  0  0  0
   -7.2826    2.5795    1.9806 H   0  0  0  0  0  0  0  0  0  0  0  0
  1 20  1  0  0  0  0
  1 28  1  0  0  0  0
  2 21  1  0  0  0  0
  2 29  1  0  0  0  0
  3 30  2  0  0  0  0
  4 35  1  0  0  0  0
  4 47  1  0  0  0  0
  5 36  1  0  0  0  0
  5 48  1  0  0  0  0
  6 37  2  0  0  0  0
  7 11  1  0  0  0  0
  7 12  1  0  0  0  0
  7 16  1  0  0  0  0
  8 27  1  0  0  0  0
  8 30  1  0  0  0  0
  8 71  1  0  0  0  0
  9 32  1  0  0  0  0
  9 37  1  0  0  0  0
  9 74  1  0  0  0  0
 10 41  1  0  0  0  0
 10 42  2  0  0  0  0
 11 13  1  0  0  0  0
 11 49  1  0  0  0  0
 11 50  1  0  0  0  0
 12 14  1  0  0  0  0
 12 51  1  0  0  0  0
 12 52  1  0  0  0  0
 13 15  1  0  0  0  0
 13 53  1  0  0  0  0
 13 54  1  0  0  0  0
 14 15  1  0  0  0  0
 14 18  2  0  0  0  0
 15 19  2  0  0  0  0
 16 17  1  0  0  0  0
 16 55  1  0  0  0  0
 16 56  1  0  0  0  0
 17 22  1  0  0  0  0
 17 57  1  0  0  0  0
 17 58  1  0  0  0  0
 18 20  1  0  0  0  0
 18 59  1  0  0  0  0
 19 21  1  0  0  0  0
 19 60  1  0  0  0  0
 20 21  2  0  0  0  0
 22 23  2  0  0  0  0
 22 24  1  0  0  0  0
 23 25  1  0  0  0  0
 23 61  1  0  0  0  0
 24 26  2  0  0  0  0
 24 62  1  0  0  0  0
 25 27  2  0  0  0  0
 25 63  1  0  0  0  0
 26 27  1  0  0  0  0
 26 64  1  0  0  0  0
 28 65  1  0  0  0  0
 28 66  1  0  0  0  0
 28 67  1  0  0  0  0
 29 68  1  0  0  0  0
 29 69  1  0  0  0  0
 29 70  1  0  0  0  0
 30 31  1  0  0  0  0
 31 32  1  0  0  0  0
 31 33  2  0  0  0  0
 32 34  2  0  0  0  0
 33 35  1  0  0  0  0
 33 72  1  0  0  0  0
 34 36  1  0  0  0  0
 34 73  1  0  0  0  0
 35 36  2  0  0  0  0
 37 38  1  0  0  0  0
 38 40  2  0  0  0  0
 38 42  1  0  0  0  0
 39 40  1  0  0  0  0
 39 41  1  0  0  0  0
 39 43  2  0  0  0  0
 40 75  1  0  0  0  0
 41 44  2  0  0  0  0
 42 76  1  0  0  0  0
 43 45  1  0  0  0  0
 43 77  1  0  0  0  0
 44 46  1  0  0  0  0
 44 78  1  0  0  0  0
 45 46  2  0  0  0  0
 45 79  1  0  0  0  0
 46 80  1  0  0  0  0
 47 81  1  0  0  0  0
 47 82  1  0  0  0  0
 47 83  1  0  0  0  0
 48 84  1  0  0  0  0
 48 85  1  0  0  0  0
 48 86  1  0  0  0  0
M  END
> <PUBCHEM_COMPOUND_CID>
148201

> <PUBCHEM_CONFORMER_RMSD>
1.4

> <PUBCHEM_CONFORMER_DIVERSEORDER>
25
26
1
41
44
4
46
5
30
40
38
35
32
8
19
47
12
45
7
17
21
6
20
43
16
36
22
27
37
2
23
33
15
9
34
48
24
13
29
42
3
10
28
11
18
31
14
39

> <PUBCHEM_MMFF94_PARTIAL_CHARGES>
63
1 -0.36
10 -0.62
11 0.27
12 0.41
13 0.14
14 -0.14
15 -0.14
16 0.27
17 0.14
18 -0.15
19 -0.15
2 -0.36
20 0.08
21 0.08
22 -0.14
23 -0.15
24 -0.15
25 -0.15
26 -0.15
27 0.12
28 0.28
29 0.28
3 -0.57
30 0.54
31 0.09
32 0.12
33 -0.15
34 -0.15
35 0.08
36 0.08
37 0.54
38 0.09
4 -0.36
40 -0.15
41 0.31
42 0.16
43 -0.15
44 -0.15
45 -0.15
46 -0.15
47 0.28
48 0.28
5 -0.36
59 0.15
6 -0.57
60 0.15
61 0.15
62 0.15
63 0.15
64 0.15
7 -0.81
71 0.37
72 0.15
73 0.15
74 0.37
75 0.15
76 0.15
77 0.15
78 0.15
79 0.15
8 -0.55
80 0.15
9 -0.55

> <PUBCHEM_EFFECTIVE_ROTOR_COUNT>
13.8

> <PUBCHEM_PHARMACOPHORE_FEATURES>
16
1 1 acceptor
1 10 acceptor
1 2 acceptor
1 3 acceptor
1 4 acceptor
1 5 acceptor
1 6 acceptor
1 7 cation
1 8 donor
1 9 donor
6 10 38 39 40 41 42 rings
6 14 15 18 19 20 21 rings
6 22 23 24 25 26 27 rings
6 31 32 33 34 35 36 rings
6 39 41 43 44 45 46 rings
6 7 11 12 13 14 15 rings

> <PUBCHEM_HEAVY_ATOM_COUNT>
48

> <PUBCHEM_ATOM_DEF_STEREO_COUNT>
0

> <PUBCHEM_ATOM_UDEF_STEREO_COUNT>
0

> <PUBCHEM_BOND_DEF_STEREO_COUNT>
0

> <PUBCHEM_BOND_UDEF_STEREO_COUNT>
0

> <PUBCHEM_ISOTOPIC_ATOM_COUNT>
0

> <PUBCHEM_COMPONENT_COUNT>
1

> <PUBCHEM_CACTVS_TAUTO_COUNT>
7

> <PUBCHEM_CONFORMER_ID>
000242E900000019

> <PUBCHEM_MMFF94_ENERGY>
191.5412

> <PUBCHEM_FEATURE_SELFOVERLAP>
81.266

> <PUBCHEM_SHAPE_FINGERPRINT>
10581848 31 18272088318190666505
10675989 125 18409169879456149514
10908659 184 18261940891392295032
1361 2 18411421704727765986
14004852 352 18413384350226908919
14394314 77 18338243674319233101
15150948 74 18337387266171941044
15150950 15 17897458395595010081
15320291 9 17402037294230975844
15320467 1 18410291440865131358
16112460 7 18272660021187028624
19319366 153 17604136095655054834
20156587 191 18117836596098202893
22019808 48 18337123340068033612
5109719 28 18340499940688390411
54131252 217 14220760318485728812
5776283 40 18267031720655409860
6176135 31 18340476868150015216
9831232 110 18410008845145419985
9961470 85 18052816133373608425

> <PUBCHEM_SHAPE_MULTIPOLES>
932.68
19.42
9.67
1.61
23.52
1.47
0.47
-0.7
3.23
-5.12
-0.93
-3.22
-0.59
0.55

> <PUBCHEM_SHAPE_SELFOVERLAP>
2043.311

> <PUBCHEM_SHAPE_VOLUME>
502.9

> <PUBCHEM_COORDINATE_TYPE>
2
5
10

$$$$