25223298
  -OEChem-03242010103D

 78 82  0     1  0  0  0  0  0999 V2000
    7.5269    2.7134   -2.9479 O   0  0  0  0  0  0  0  0  0  0  0  0
    7.0637    4.4288   -0.8124 O   0  0  0  0  0  0  0  0  0  0  0  0
   -0.8567   -0.2008    0.8838 O   0  0  0  0  0  0  0  0  0  0  0  0
   -7.1725   -1.6036   -1.8370 O   0  0  0  0  0  0  0  0  0  0  0  0
   -6.2727   -0.7362   -3.7703 O   0  0  0  0  0  0  0  0  0  0  0  0
   -4.8459    1.3607    1.7406 O   0  0  0  0  0  0  0  0  0  0  0  0
    5.8147   -1.5760    1.0659 N   0  0  1  0  0  0  0  0  0  0  0  0
   -0.3807   -2.3383    0.0277 N   0  0  0  0  0  0  0  0  0  0  0  0
   -5.7867    0.3681   -0.1712 N   0  0  0  0  0  0  0  0  0  0  0  0
   -8.1943    3.7754    2.2434 N   0  0  0  0  0  0  0  0  0  0  0  0
    6.3185   -0.8707    2.2506 C   0  0  0  0  0  0  0  0  0  0  0  0
    6.5864   -1.1838   -0.1267 C   0  0  0  0  0  0  0  0  0  0  0  0
    6.0531    0.6321    2.1140 C   0  0  0  0  0  0  0  0  0  0  0  0
    6.6832    0.3134   -0.3106 C   0  0  0  0  0  0  0  0  0  0  0  0
    6.4712    1.1809    0.7747 C   0  0  0  0  0  0  0  0  0  0  0  0
    5.8764   -3.0243    1.2585 C   0  0  0  0  0  0  0  0  0  0  0  0
    4.7577   -3.5018    2.1849 C   0  0  0  0  0  0  0  0  0  0  0  0
    7.0496    0.8422   -1.5557 C   0  0  0  0  0  0  0  0  0  0  0  0
    6.5920    2.5643    0.5903 C   0  0  0  0  0  0  0  0  0  0  0  0
    7.1770    2.2204   -1.7270 C   0  0  0  0  0  0  0  0  0  0  0  0
    6.9462    3.0805   -0.6557 C   0  0  0  0  0  0  0  0  0  0  0  0
    3.3965   -3.1932    1.6142 C   0  0  0  0  0  0  0  0  0  0  0  0
    2.7742   -1.9803    1.9095 C   0  0  0  0  0  0  0  0  0  0  0  0
    2.7602   -4.1209    0.7896 C   0  0  0  0  0  0  0  0  0  0  0  0
    1.5155   -1.6953    1.3802 C   0  0  0  0  0  0  0  0  0  0  0  0
    1.5013   -3.8360    0.2605 C   0  0  0  0  0  0  0  0  0  0  0  0
    0.8789   -2.6231    0.5559 C   0  0  0  0  0  0  0  0  0  0  0  0
    7.7450    1.7658   -3.9912 C   0  0  0  0  0  0  0  0  0  0  0  0
    6.8107    5.2389    0.3339 C   0  0  0  0  0  0  0  0  0  0  0  0
   -1.1530   -1.1840    0.2133 C   0  0  0  0  0  0  0  0  0  0  0  0
   -2.4520   -1.1635   -0.5091 C   0  0  0  0  0  0  0  0  0  0  0  0
   -3.5162   -0.4126   -0.0100 C   0  0  0  0  0  0  0  0  0  0  0  0
   -4.7343   -0.3916   -0.6894 C   0  0  0  0  0  0  0  0  0  0  0  0
   -2.6058   -1.8937   -1.6876 C   0  0  0  0  0  0  0  0  0  0  0  0
   -4.8882   -1.1220   -1.8679 C   0  0  0  0  0  0  0  0  0  0  0  0
   -3.8239   -1.8731   -2.3668 C   0  0  0  0  0  0  0  0  0  0  0  0
   -6.1472   -1.1217   -2.6023 C   0  0  0  0  0  0  0  0  0  0  0  0
   -5.7844    1.1731    0.9737 C   0  0  0  0  0  0  0  0  0  0  0  0
   -7.0593    1.8846    1.2528 C   0  0  0  0  0  0  0  0  0  0  0  0
   -8.2766    1.3726    0.8175 C   0  0  0  0  0  0  0  0  0  0  0  0
   -7.0722    3.0787    1.9555 C   0  0  0  0  0  0  0  0  0  0  0  0
   -8.4649   -1.6550   -2.4505 C   0  0  0  0  0  0  0  0  0  0  0  0
   -9.4528    2.0607    1.0942 C   0  0  0  0  0  0  0  0  0  0  0  0
   -9.3585    3.2468    1.8041 C   0  0  0  0  0  0  0  0  0  0  0  0
    7.3948   -1.0509    2.3798 H   0  0  0  0  0  0  0  0  0  0  0  0
    5.8291   -1.2019    3.1719 H   0  0  0  0  0  0  0  0  0  0  0  0
    6.0958   -1.6084   -1.0116 H   0  0  0  0  0  0  0  0  0  0  0  0
    7.6078   -1.5850   -0.0777 H   0  0  0  0  0  0  0  0  0  0  0  0
    6.5879    1.1578    2.9141 H   0  0  0  0  0  0  0  0  0  0  0  0
    4.9810    0.8280    2.2426 H   0  0  0  0  0  0  0  0  0  0  0  0
    5.7547   -3.5347    0.2932 H   0  0  0  0  0  0  0  0  0  0  0  0
    6.8517   -3.3354    1.6544 H   0  0  0  0  0  0  0  0  0  0  0  0
    4.8438   -3.0878    3.1957 H   0  0  0  0  0  0  0  0  0  0  0  0
    4.8508   -4.5879    2.3186 H   0  0  0  0  0  0  0  0  0  0  0  0
    7.2226    0.1239   -2.3505 H   0  0  0  0  0  0  0  0  0  0  0  0
    6.3950    3.1837    1.4593 H   0  0  0  0  0  0  0  0  0  0  0  0
    3.2518   -1.2521    2.5591 H   0  0  0  0  0  0  0  0  0  0  0  0
    3.2356   -5.0684    0.5501 H   0  0  0  0  0  0  0  0  0  0  0  0
    1.0993   -0.7371    1.6571 H   0  0  0  0  0  0  0  0  0  0  0  0
    1.0176   -4.5683   -0.3809 H   0  0  0  0  0  0  0  0  0  0  0  0
    8.0132    2.3321   -4.8892 H   0  0  0  0  0  0  0  0  0  0  0  0
    6.8323    1.2088   -4.2287 H   0  0  0  0  0  0  0  0  0  0  0  0
    8.5909    1.1067   -3.7680 H   0  0  0  0  0  0  0  0  0  0  0  0
    6.9509    6.2812    0.0285 H   0  0  0  0  0  0  0  0  0  0  0  0
    7.5326    5.0434    1.1342 H   0  0  0  0  0  0  0  0  0  0  0  0
    5.7737    5.1450    0.6739 H   0  0  0  0  0  0  0  0  0  0  0  0
   -0.7743   -3.0935   -0.5264 H   0  0  0  0  0  0  0  0  0  0  0  0
   -3.3375    0.1171    0.9135 H   0  0  0  0  0  0  0  0  0  0  0  0
   -1.7949   -2.4622   -2.1328 H   0  0  0  0  0  0  0  0  0  0  0  0
   -3.9287   -2.4412   -3.2878 H   0  0  0  0  0  0  0  0  0  0  0  0
   -6.6307    0.3578   -0.7350 H   0  0  0  0  0  0  0  0  0  0  0  0
   -8.3578    0.4267    0.2913 H   0  0  0  0  0  0  0  0  0  0  0  0
   -6.1578    3.5365    2.3204 H   0  0  0  0  0  0  0  0  0  0  0  0
   -9.1711   -2.0624   -1.7222 H   0  0  0  0  0  0  0  0  0  0  0  0
   -8.4419   -2.3113   -3.3254 H   0  0  0  0  0  0  0  0  0  0  0  0
   -8.7888   -0.6482   -2.7299 H   0  0  0  0  0  0  0  0  0  0  0  0
  -10.4139    1.6768    0.7718 H   0  0  0  0  0  0  0  0  0  0  0  0
  -10.2468    3.8204    2.0475 H   0  0  0  0  0  0  0  0  0  0  0  0
  1 20  1  0  0  0  0
  1 28  1  0  0  0  0
  2 21  1  0  0  0  0
  2 29  1  0  0  0  0
  3 30  2  0  0  0  0
  4 37  1  0  0  0  0
  4 42  1  0  0  0  0
  5 37  2  0  0  0  0
  6 38  2  0  0  0  0
  7 11  1  0  0  0  0
  7 12  1  0  0  0  0
  7 16  1  0  0  0  0
  8 27  1  0  0  0  0
  8 30  1  0  0  0  0
  8 67  1  0  0  0  0
  9 33  1  0  0  0  0
  9 38  1  0  0  0  0
  9 71  1  0  0  0  0
 10 41  1  0  0  0  0
 10 44  2  0  0  0  0
 11 13  1  0  0  0  0
 11 45  1  0  0  0  0
 11 46  1  0  0  0  0
 12 14  1  0  0  0  0
 12 47  1  0  0  0  0
 12 48  1  0  0  0  0
 13 15  1  0  0  0  0
 13 49  1  0  0  0  0
 13 50  1  0  0  0  0
 14 15  1  0  0  0  0
 14 18  2  0  0  0  0
 15 19  2  0  0  0  0
 16 17  1  0  0  0  0
 16 51  1  0  0  0  0
 16 52  1  0  0  0  0
 17 22  1  0  0  0  0
 17 53  1  0  0  0  0
 17 54  1  0  0  0  0
 18 20  1  0  0  0  0
 18 55  1  0  0  0  0
 19 21  1  0  0  0  0
 19 56  1  0  0  0  0
 20 21  2  0  0  0  0
 22 23  2  0  0  0  0
 22 24  1  0  0  0  0
 23 25  1  0  0  0  0
 23 57  1  0  0  0  0
 24 26  2  0  0  0  0
 24 58  1  0  0  0  0
 25 27  2  0  0  0  0
 25 59  1  0  0  0  0
 26 27  1  0  0  0  0
 26 60  1  0  0  0  0
 28 61  1  0  0  0  0
 28 62  1  0  0  0  0
 28 63  1  0  0  0  0
 29 64  1  0  0  0  0
 29 65  1  0  0  0  0
 29 66  1  0  0  0  0
 30 31  1  0  0  0  0
 31 32  2  0  0  0  0
 31 34  1  0  0  0  0
 32 33  1  0  0  0  0
 32 68  1  0  0  0  0
 33 35  2  0  0  0  0
 34 36  2  0  0  0  0
 34 69  1  0  0  0  0
 35 36  1  0  0  0  0
 35 37  1  0  0  0  0
 36 70  1  0  0  0  0
 38 39  1  0  0  0  0
 39 40  1  0  0  0  0
 39 41  2  0  0  0  0
 40 43  2  0  0  0  0
 40 72  1  0  0  0  0
 41 73  1  0  0  0  0
 42 74  1  0  0  0  0
 42 75  1  0  0  0  0
 42 76  1  0  0  0  0
 43 44  1  0  0  0  0
 43 77  1  0  0  0  0
 44 78  1  0  0  0  0
M  END
> <PUBCHEM_COMPOUND_CID>
25223298

> <PUBCHEM_CONFORMER_RMSD>
1.4

> <PUBCHEM_CONFORMER_DIVERSEORDER>
28
29
41
44
10
30
20
40
7
15
31
9
8
38
16
43
13
2
37
19
4
5
22
39
3
18
1
32
12
24
42
14
27
6
25
35
23
17
33
26
21
34
36
11

> <PUBCHEM_MMFF94_PARTIAL_CHARGES>
59
1 -0.36
10 -0.62
11 0.27
12 0.41
13 0.14
14 -0.14
15 -0.14
16 0.27
17 0.14
18 -0.15
19 -0.15
2 -0.36
20 0.08
21 0.08
22 -0.14
23 -0.15
24 -0.15
25 -0.15
26 -0.15
27 0.12
28 0.28
29 0.28
3 -0.57
30 0.54
31 0.09
32 -0.15
33 0.12
34 -0.15
35 0.09
36 -0.15
37 0.63
38 0.54
39 0.09
4 -0.43
40 -0.15
41 0.16
42 0.28
43 -0.15
44 0.16
5 -0.57
55 0.15
56 0.15
57 0.15
58 0.15
59 0.15
6 -0.57
60 0.15
67 0.37
68 0.15
69 0.15
7 -0.81
70 0.15
71 0.37
72 0.15
73 0.15
77 0.15
78 0.15
8 -0.55
9 -0.55

> <PUBCHEM_EFFECTIVE_ROTOR_COUNT>
13.8

> <PUBCHEM_PHARMACOPHORE_FEATURES>
14
1 1 acceptor
1 10 acceptor
1 2 acceptor
1 3 acceptor
1 5 acceptor
1 6 acceptor
1 7 cation
1 8 donor
1 9 donor
6 10 39 40 41 43 44 rings
6 14 15 18 19 20 21 rings
6 22 23 24 25 26 27 rings
6 31 32 33 34 35 36 rings
6 7 11 12 13 14 15 rings

> <PUBCHEM_HEAVY_ATOM_COUNT>
44

> <PUBCHEM_ATOM_DEF_STEREO_COUNT>
0

> <PUBCHEM_ATOM_UDEF_STEREO_COUNT>
0

> <PUBCHEM_BOND_DEF_STEREO_COUNT>
0

> <PUBCHEM_BOND_UDEF_STEREO_COUNT>
0

> <PUBCHEM_ISOTOPIC_ATOM_COUNT>
0

> <PUBCHEM_COMPONENT_COUNT>
1

> <PUBCHEM_CACTVS_TAUTO_COUNT>
6

> <PUBCHEM_CONFORMER_ID>
0180E0820000001C

> <PUBCHEM_MMFF94_ENERGY>
162.4969

> <PUBCHEM_FEATURE_SELFOVERLAP>
71.077

> <PUBCHEM_SHAPE_FINGERPRINT>
10533779 1 17897713491964731884
10675989 125 18334572478499046480
11146346 142 18270391832063394064
11399510 152 15720221795876554258
11578821 258 18192432975084853905
12559415 36 18269575938442844752
12975358 362 17894631430899301044
13782708 43 12895357707163373682
15064981 194 18269826666429210703
1577012 14 18201428143834934123
16067689 134 18411707616522465056
16096371 109 17531794767788779610
16993089 31 13254505522807918133
21792938 79 18187079568853156483
21792964 463 18199476458606866099
21895439 516 14764340540094061669
23522609 53 18343019961087911003
3418910 222 18341888620063762751
3711267 37 18411972559963811881
397830 11 16877665677439096026
4258327 124 18201441342474806107
5109719 28 17022904566709333150

> <PUBCHEM_SHAPE_MULTIPOLES>
850.36
35.22
5.91
3.3
29.75
3.38
2.89
36.38
3.31
-8.37
-1.98
0.63
0.43
-14.14

> <PUBCHEM_SHAPE_SELFOVERLAP>
1845.924

> <PUBCHEM_SHAPE_VOLUME>
461.4

> <PUBCHEM_COORDINATE_TYPE>
2
5
10

$$$$