71454923
  -OEChem-03242010103D

 46 49  0     0  0  0  0  0  0999 V2000
    3.6141    1.2687    1.7427 O   0  0  0  0  0  0  0  0  0  0  0  0
    5.6898    0.6068    0.0152 O   0  0  0  0  0  0  0  0  0  0  0  0
    0.6660   -1.6678   -0.6598 N   0  0  0  0  0  0  0  0  0  0  0  0
   -0.8392    0.1278   -0.4438 N   0  0  0  0  0  0  0  0  0  0  0  0
   -3.1399   -0.2623    0.1575 N   0  0  0  0  0  0  0  0  0  0  0  0
   -1.6378   -2.1199   -0.0532 C   0  0  0  0  0  0  0  0  0  0  0  0
   -0.6424   -1.2024   -0.3778 C   0  0  0  0  0  0  0  0  0  0  0  0
   -2.9087   -1.5856    0.2144 C   0  0  0  0  0  0  0  0  0  0  0  0
    1.9343   -1.0914   -0.4861 C   0  0  0  0  0  0  0  0  0  0  0  0
   -2.0928    0.5223   -0.1685 C   0  0  0  0  0  0  0  0  0  0  0  0
   -1.4076   -3.5052    0.0092 C   0  0  0  0  0  0  0  0  0  0  0  0
   -2.3482    1.9379   -0.2276 C   0  0  0  0  0  0  0  0  0  0  0  0
   -3.9307   -2.4730    0.5429 C   0  0  0  0  0  0  0  0  0  0  0  0
    2.1533   -0.1867    0.5526 C   0  0  0  0  0  0  0  0  0  0  0  0
    2.9754   -1.4234   -1.3531 C   0  0  0  0  0  0  0  0  0  0  0  0
    3.4134    0.3860    0.7246 C   0  0  0  0  0  0  0  0  0  0  0  0
   -2.4471   -4.3689    0.3400 C   0  0  0  0  0  0  0  0  0  0  0  0
   -3.7099   -3.8519    0.6072 C   0  0  0  0  0  0  0  0  0  0  0  0
    4.4546    0.0540   -0.1422 C   0  0  0  0  0  0  0  0  0  0  0  0
    4.2356   -0.8507   -1.1812 C   0  0  0  0  0  0  0  0  0  0  0  0
   -3.6150    2.4036   -0.5797 C   0  0  0  0  0  0  0  0  0  0  0  0
   -1.3293    2.8436    0.0672 C   0  0  0  0  0  0  0  0  0  0  0  0
   -3.8629    3.7752   -0.6371 C   0  0  0  0  0  0  0  0  0  0  0  0
   -1.5770    4.2151    0.0099 C   0  0  0  0  0  0  0  0  0  0  0  0
   -2.8439    4.6809   -0.3423 C   0  0  0  0  0  0  0  0  0  0  0  0
    2.4973    1.5533    2.5829 C   0  0  0  0  0  0  0  0  0  0  0  0
    6.6985    0.2140   -0.9137 C   0  0  0  0  0  0  0  0  0  0  0  0
    0.6728   -2.4740   -1.2785 H   0  0  0  0  0  0  0  0  0  0  0  0
   -0.4315   -3.9406   -0.1857 H   0  0  0  0  0  0  0  0  0  0  0  0
   -4.9283   -2.0937    0.7565 H   0  0  0  0  0  0  0  0  0  0  0  0
    1.3194    0.0267    1.2119 H   0  0  0  0  0  0  0  0  0  0  0  0
    2.8171   -2.1264   -2.1671 H   0  0  0  0  0  0  0  0  0  0  0  0
   -2.2732   -5.4394    0.3913 H   0  0  0  0  0  0  0  0  0  0  0  0
   -4.5267   -4.5192    0.8666 H   0  0  0  0  0  0  0  0  0  0  0  0
    4.9960   -1.1549   -1.8921 H   0  0  0  0  0  0  0  0  0  0  0  0
   -4.4276    1.7241   -0.8251 H   0  0  0  0  0  0  0  0  0  0  0  0
   -0.3341    2.5127    0.3537 H   0  0  0  0  0  0  0  0  0  0  0  0
   -4.8486    4.1382   -0.9134 H   0  0  0  0  0  0  0  0  0  0  0  0
   -0.7843    4.9206    0.2414 H   0  0  0  0  0  0  0  0  0  0  0  0
   -3.0367    5.7488   -0.3870 H   0  0  0  0  0  0  0  0  0  0  0  0
    2.8358    2.2751    3.3336 H   0  0  0  0  0  0  0  0  0  0  0  0
    2.1640    0.6634    3.1276 H   0  0  0  0  0  0  0  0  0  0  0  0
    1.6846    2.0332    2.0271 H   0  0  0  0  0  0  0  0  0  0  0  0
    7.6141    0.7487   -0.6403 H   0  0  0  0  0  0  0  0  0  0  0  0
    6.4465    0.5177   -1.9355 H   0  0  0  0  0  0  0  0  0  0  0  0
    6.9211   -0.8559   -0.8393 H   0  0  0  0  0  0  0  0  0  0  0  0
  1 16  1  0  0  0  0
  1 26  1  0  0  0  0
  2 19  1  0  0  0  0
  2 27  1  0  0  0  0
  3  7  1  0  0  0  0
  3  9  1  0  0  0  0
  3 28  1  0  0  0  0
  4  7  2  0  0  0  0
  4 10  1  0  0  0  0
  5  8  1  0  0  0  0
  5 10  2  0  0  0  0
  6  7  1  0  0  0  0
  6  8  1  0  0  0  0
  6 11  2  0  0  0  0
  8 13  2  0  0  0  0
  9 14  2  0  0  0  0
  9 15  1  0  0  0  0
 10 12  1  0  0  0  0
 11 17  1  0  0  0  0
 11 29  1  0  0  0  0
 12 21  2  0  0  0  0
 12 22  1  0  0  0  0
 13 18  1  0  0  0  0
 13 30  1  0  0  0  0
 14 16  1  0  0  0  0
 14 31  1  0  0  0  0
 15 20  2  0  0  0  0
 15 32  1  0  0  0  0
 16 19  2  0  0  0  0
 17 18  2  0  0  0  0
 17 33  1  0  0  0  0
 18 34  1  0  0  0  0
 19 20  1  0  0  0  0
 20 35  1  0  0  0  0
 21 23  1  0  0  0  0
 21 36  1  0  0  0  0
 22 24  2  0  0  0  0
 22 37  1  0  0  0  0
 23 25  2  0  0  0  0
 23 38  1  0  0  0  0
 24 25  1  0  0  0  0
 24 39  1  0  0  0  0
 25 40  1  0  0  0  0
 26 41  1  0  0  0  0
 26 42  1  0  0  0  0
 26 43  1  0  0  0  0
 27 44  1  0  0  0  0
 27 45  1  0  0  0  0
 27 46  1  0  0  0  0
M  END
> <PUBCHEM_COMPOUND_CID>
71454923

> <PUBCHEM_CONFORMER_RMSD>
0.8

> <PUBCHEM_CONFORMER_DIVERSEORDER>
1
36
28
18
26
7
8
12
11
29
22
34
21
37
25
3
39
15
35
38
5
19
30
32
2
23
4
40
31
13
17
27
14
20
9
10
16
24
6
33

> <PUBCHEM_MMFF94_PARTIAL_CHARGES>
38
1 -0.36
10 0.62
11 -0.15
13 -0.15
14 -0.15
15 -0.15
16 0.08
17 -0.15
18 -0.15
19 0.08
2 -0.36
20 -0.15
21 -0.15
22 -0.15
23 -0.15
24 -0.15
25 -0.15
26 0.28
27 0.28
28 0.4
29 0.15
3 -0.6
30 0.15
31 0.15
32 0.15
33 0.15
34 0.15
35 0.15
36 0.15
37 0.15
38 0.15
39 0.15
4 -0.62
40 0.15
5 -0.62
7 0.41
8 0.31
9 0.1

> <PUBCHEM_EFFECTIVE_ROTOR_COUNT>
5

> <PUBCHEM_PHARMACOPHORE_FEATURES>
9
1 1 acceptor
1 2 acceptor
1 3 donor
3 3 4 7 cation
3 4 5 10 cation
6 12 21 22 23 24 25 rings
6 4 5 6 7 8 10 rings
6 6 8 11 13 17 18 rings
6 9 14 15 16 19 20 rings

> <PUBCHEM_HEAVY_ATOM_COUNT>
27

> <PUBCHEM_ATOM_DEF_STEREO_COUNT>
0

> <PUBCHEM_ATOM_UDEF_STEREO_COUNT>
0

> <PUBCHEM_BOND_DEF_STEREO_COUNT>
0

> <PUBCHEM_BOND_UDEF_STEREO_COUNT>
0

> <PUBCHEM_ISOTOPIC_ATOM_COUNT>
0

> <PUBCHEM_COMPONENT_COUNT>
1

> <PUBCHEM_CACTVS_TAUTO_COUNT>
3

> <PUBCHEM_CONFORMER_ID>
044250CB00000001

> <PUBCHEM_MMFF94_ENERGY>
115.853

> <PUBCHEM_FEATURE_SELFOVERLAP>
45.848

> <PUBCHEM_SHAPE_FINGERPRINT>
10006869 2 18264482898373994707
10319926 262 18339629089277816378
10411042 1 18121223344560273655
10937287 8 18048599214154622717
11056379 131 18336837454317736910
11059845 2 17974824222136036936
12107183 9 17900532386095619698
12173636 292 18265052436215878487
12769317 202 17619337711128629597
12788726 201 18187362168473339523
13726171 33 18341338851165507416
13785724 45 17977672236156253699
138480 1 16391835113312798197
13965767 371 17462851964946594940
14114211 68 17474418793075051469
14363568 33 17692538127260507152
14466204 15 17111840471302521370
14508225 48 18196926897997380559
15230672 131 18119536428010585478
15684970 41 17467635240271265530
15961568 22 17905886234269994440
16087824 20 18409451385198790031
17980427 26 17617927042347578133
20101258 96 18265061412570900347
21033648 29 18268143158743404504
21033650 10 18044687302655672462
21049683 118 18045481050949953729
21133410 221 17699246076552075048
21792961 116 17988373607373840750
21796203 349 17323558483277950379
22122407 14 15430045335303362359
22182313 1 17917417783710402112
22440779 20 16962173016001046138
23366157 5 17180247128939220951
23557571 272 18412545431032925526
23559900 14 18339361976038876806
23845131 108 17977397032116658073
249057 25 17676775374984611612
283562 15 18338234865567941383
3187 122 18121759871705585041
4058900 60 17836091069615276785
4409770 3 18334290973024904791
508706 21 18341886394485064084
57124632 79 17615398165509227573
6287921 2 17336742783050840040
6673363 416 17903661901484539092
6700243 42 17839784574570961238
7399639 24 17984974045641898714
7808743 9 18335704893127757540
84936 182 17547849655813851689
9777508 108 18411418367569792673
9981440 41 18047190752860628169

> <PUBCHEM_SHAPE_MULTIPOLES>
528.97
10.62
6.15
1.24
17.25
1.65
0.68
1.79
-1.28
-12.09
0.12
1.51
0.41
2.4

> <PUBCHEM_SHAPE_SELFOVERLAP>
1172.699

> <PUBCHEM_SHAPE_VOLUME>
282.7

> <PUBCHEM_COORDINATE_TYPE>
2
5
10

$$$$