171
 OpenBabel03292022023D

 48 51  0  0  0  0  0  0  0  0999 V2000
    1.9853    1.1011    0.9441 C   0  0  0  0  0  0  0  0  0  0  0  0
    1.8101    2.4203    0.4435 O   0  0  0  0  0  0  0  0  0  0  0  0
    2.3992    2.6755   -0.7634 C   0  0  0  0  0  0  0  0  0  0  0  0
    1.7765    3.6652   -1.5218 C   0  0  0  0  0  0  0  0  0  0  0  0
    2.3021    4.0330   -2.7591 C   0  0  0  0  0  0  0  0  0  0  0  0
    3.4618    3.4187   -3.2481 C   0  0  0  0  0  0  0  0  0  0  0  0
    4.0157    3.9305   -4.5289 C   0  0  0  0  0  0  0  0  0  0  0  0
    3.8198    5.1117   -4.7814 O   0  0  0  0  0  0  0  0  0  0  0  0
    4.6509    3.0130   -5.3528 N   0  0  0  0  0  0  0  0  0  0  0  0
    5.2666    3.3169   -6.6028 C   0  0  0  0  0  0  0  0  0  0  0  0
    5.5993    4.6444   -6.9295 C   0  0  0  0  0  0  0  0  0  0  0  0
    6.1700    4.9838   -8.1579 C   0  0  0  0  0  0  0  0  0  0  0  0
    6.4579    3.9940   -9.0815 C   0  0  0  0  0  0  0  0  0  0  0  0
    6.1660    2.6672   -8.7739 C   0  0  0  0  0  0  0  0  0  0  0  0
    5.5585    2.3052   -7.5484 C   0  0  0  0  0  0  0  0  0  0  0  0
    5.1774    0.9046   -7.3732 C   0  0  0  0  0  0  0  0  0  0  0  0
    4.6250    0.3966   -6.2230 N   0  0  0  0  0  0  0  0  0  0  0  0
    4.2813   -0.8565   -6.4823 N   0  0  0  0  0  0  0  0  0  0  0  0
    4.6251   -1.0652   -7.7753 N   0  0  0  0  0  0  0  0  0  0  0  0
    4.3115   -2.2375   -8.4864 C   0  0  0  0  0  0  0  0  0  0  0  0
    4.7167   -2.4093   -9.8151 C   0  0  0  0  0  0  0  0  0  0  0  0
    4.3576   -3.5767  -10.4856 C   0  0  0  0  0  0  0  0  0  0  0  0
    3.6040   -4.5224   -9.8075 C   0  0  0  0  0  0  0  0  0  0  0  0
    3.2652   -5.6573  -10.5150 O   0  0  0  0  0  0  0  0  0  0  0  0
    2.4718   -6.5652   -9.7567 C   0  0  0  0  0  0  0  0  0  0  0  0
    3.2017   -4.3800   -8.5249 N   0  0  0  0  0  0  0  0  0  0  0  0
    3.5625   -3.2400   -7.8891 C   0  0  0  0  0  0  0  0  0  0  0  0
    5.2525   -0.0154   -8.3502 N   0  0  0  0  0  0  0  0  0  0  0  0
    4.1025    2.4397   -2.4814 C   0  0  0  0  0  0  0  0  0  0  0  0
    3.5686    2.0720   -1.2376 C   0  0  0  0  0  0  0  0  0  0  0  0
    1.3287    0.9857    1.8119 H   0  0  0  0  0  0  0  0  0  0  0  0
    3.0129    0.9392    1.2822 H   0  0  0  0  0  0  0  0  0  0  0  0
    1.6915    0.3542    0.1988 H   0  0  0  0  0  0  0  0  0  0  0  0
    0.8832    4.1578   -1.1469 H   0  0  0  0  0  0  0  0  0  0  0  0
    1.8127    4.8169   -3.3345 H   0  0  0  0  0  0  0  0  0  0  0  0
    4.5270    2.0270   -5.1330 H   0  0  0  0  0  0  0  0  0  0  0  0
    5.4275    5.4618   -6.2346 H   0  0  0  0  0  0  0  0  0  0  0  0
    6.3816    6.0262   -8.3823 H   0  0  0  0  0  0  0  0  0  0  0  0
    6.8972    4.2516  -10.0414 H   0  0  0  0  0  0  0  0  0  0  0  0
    6.3941    1.9086   -9.5215 H   0  0  0  0  0  0  0  0  0  0  0  0
    5.3019   -1.6550  -10.3347 H   0  0  0  0  0  0  0  0  0  0  0  0
    4.6533   -3.7447  -11.5158 H   0  0  0  0  0  0  0  0  0  0  0  0
    2.2444   -7.4245  -10.3947 H   0  0  0  0  0  0  0  0  0  0  0  0
    1.5202   -6.1094   -9.4611 H   0  0  0  0  0  0  0  0  0  0  0  0
    3.0196   -6.9349   -8.8828 H   0  0  0  0  0  0  0  0  0  0  0  0
    3.2015   -3.1691   -6.8663 H   0  0  0  0  0  0  0  0  0  0  0  0
    5.0378    1.9938   -2.8090 H   0  0  0  0  0  0  0  0  0  0  0  0
    4.1060    1.3427   -0.6397 H   0  0  0  0  0  0  0  0  0  0  0  0
  1  2  1  0  0  0  0
  1 31  1  0  0  0  0
  1 32  1  0  0  0  0
  1 33  1  0  0  0  0
  2  3  1  0  0  0  0
  3  4  1  0  0  0  0
  3 30  2  0  0  0  0
  4  5  2  0  0  0  0
  4 34  1  0  0  0  0
  5  6  1  0  0  0  0
  5 35  1  0  0  0  0
  6  7  1  0  0  0  0
  6 29  2  0  0  0  0
  7  8  2  0  0  0  0
  7  9  1  0  0  0  0
  9 10  1  0  0  0  0
  9 36  1  0  0  0  0
 10 11  1  0  0  0  0
 10 15  2  0  0  0  0
 11 12  2  0  0  0  0
 11 37  1  0  0  0  0
 12 13  1  0  0  0  0
 12 38  1  0  0  0  0
 13 14  2  0  0  0  0
 13 39  1  0  0  0  0
 14 15  1  0  0  0  0
 14 40  1  0  0  0  0
 15 16  1  0  0  0  0
 16 17  1  0  0  0  0
 16 28  2  0  0  0  0
 17 18  2  0  0  0  0
 18 19  1  0  0  0  0
 19 20  1  0  0  0  0
 19 28  1  0  0  0  0
 20 21  1  0  0  0  0
 20 27  2  0  0  0  0
 21 22  2  0  0  0  0
 21 41  1  0  0  0  0
 22 23  1  0  0  0  0
 22 42  1  0  0  0  0
 23 24  1  0  0  0  0
 23 26  2  0  0  0  0
 24 25  1  0  0  0  0
 25 43  1  0  0  0  0
 25 44  1  0  0  0  0
 25 45  1  0  0  0  0
 26 27  1  0  0  0  0
 27 46  1  0  0  0  0
 29 30  1  0  0  0  0
 29 47  1  0  0  0  0
 30 48  1  0  0  0  0
M  END
>  <Energy>
80.9995

$$$$