118708511
  -OEChem-03242010103D

 47 49  0     0  0  0  0  0  0999 V2000
    7.6665   -1.7397   -1.5956 F   0  0  0  0  0  0  0  0  0  0  0  0
    7.7221    1.6754    1.6852 F   0  0  0  0  0  0  0  0  0  0  0  0
   -6.9915    0.5560    0.1558 O   0  0  0  0  0  0  0  0  0  0  0  0
   -6.1743   -2.0547    0.5924 O   0  0  0  0  0  0  0  0  0  0  0  0
   -5.1145    2.4932   -0.4720 O   0  0  0  0  0  0  0  0  0  0  0  0
   -1.2520   -1.9665   -0.5134 O   0  0  0  0  0  0  0  0  0  0  0  0
   -0.6382    0.2354    0.0328 N   0  0  0  0  0  0  0  0  0  0  0  0
    1.4457    1.3172    0.3188 N   0  0  0  0  0  0  0  0  0  0  0  0
   -2.9714   -0.4478   -0.1276 C   0  0  0  0  0  0  0  0  0  0  0  0
   -5.6718    0.2262    0.0621 C   0  0  0  0  0  0  0  0  0  0  0  0
   -5.2641   -1.0891    0.2837 C   0  0  0  0  0  0  0  0  0  0  0  0
   -4.7293    1.2046   -0.2543 C   0  0  0  0  0  0  0  0  0  0  0  0
   -3.9138   -1.4262    0.1890 C   0  0  0  0  0  0  0  0  0  0  0  0
   -3.3791    0.8676   -0.3492 C   0  0  0  0  0  0  0  0  0  0  0  0
    3.4867    0.0548    0.0258 C   0  0  0  0  0  0  0  0  0  0  0  0
    4.9331    0.0257    0.0312 C   0  0  0  0  0  0  0  0  0  0  0  0
   -1.5326   -0.8064   -0.2316 C   0  0  0  0  0  0  0  0  0  0  0  0
    0.7610    0.1866    0.0347 C   0  0  0  0  0  0  0  0  0  0  0  0
    2.7476   -1.0874   -0.2615 C   0  0  0  0  0  0  0  0  0  0  0  0
    1.3583   -1.0287   -0.2591 C   0  0  0  0  0  0  0  0  0  0  0  0
    2.7942    1.2216    0.3069 C   0  0  0  0  0  0  0  0  0  0  0  0
    5.6445    0.8819    0.8716 C   0  0  0  0  0  0  0  0  0  0  0  0
    5.6161   -0.8597   -0.8026 C   0  0  0  0  0  0  0  0  0  0  0  0
    7.0107   -0.8889   -0.7957 C   0  0  0  0  0  0  0  0  0  0  0  0
    7.0390    0.8527    0.8784 C   0  0  0  0  0  0  0  0  0  0  0  0
    7.7221   -0.0327    0.0447 C   0  0  0  0  0  0  0  0  0  0  0  0
   -7.7689    0.4571   -1.0353 C   0  0  0  0  0  0  0  0  0  0  0  0
   -6.4579   -2.2591    1.9752 C   0  0  0  0  0  0  0  0  0  0  0  0
   -4.0881    3.4310   -0.7904 C   0  0  0  0  0  0  0  0  0  0  0  0
   -3.6094   -2.4546    0.3680 H   0  0  0  0  0  0  0  0  0  0  0  0
   -2.6357    1.5958   -0.6454 H   0  0  0  0  0  0  0  0  0  0  0  0
   -0.9972    1.1446    0.3069 H   0  0  0  0  0  0  0  0  0  0  0  0
    3.2140   -2.0474   -0.4652 H   0  0  0  0  0  0  0  0  0  0  0  0
    0.8565   -1.9550   -0.4845 H   0  0  0  0  0  0  0  0  0  0  0  0
    3.2878    2.1657    0.5146 H   0  0  0  0  0  0  0  0  0  0  0  0
    5.1540    1.5689    1.5556 H   0  0  0  0  0  0  0  0  0  0  0  0
    5.1041   -1.5258   -1.4915 H   0  0  0  0  0  0  0  0  0  0  0  0
    8.8077   -0.0555    0.0501 H   0  0  0  0  0  0  0  0  0  0  0  0
   -8.7948    0.7533   -0.8001 H   0  0  0  0  0  0  0  0  0  0  0  0
   -7.7786   -0.5732   -1.4047 H   0  0  0  0  0  0  0  0  0  0  0  0
   -7.3793    1.1288   -1.8069 H   0  0  0  0  0  0  0  0  0  0  0  0
   -5.5550   -2.5710    2.5097 H   0  0  0  0  0  0  0  0  0  0  0  0
   -6.8648   -1.3476    2.4242 H   0  0  0  0  0  0  0  0  0  0  0  0
   -7.2051   -3.0532    2.0578 H   0  0  0  0  0  0  0  0  0  0  0  0
   -3.3694    3.5404    0.0291 H   0  0  0  0  0  0  0  0  0  0  0  0
   -3.6053    3.1932   -1.7445 H   0  0  0  0  0  0  0  0  0  0  0  0
   -4.5722    4.4052   -0.9168 H   0  0  0  0  0  0  0  0  0  0  0  0
  1 24  1  0  0  0  0
  2 25  1  0  0  0  0
  3 10  1  0  0  0  0
  3 27  1  0  0  0  0
  4 11  1  0  0  0  0
  4 28  1  0  0  0  0
  5 12  1  0  0  0  0
  5 29  1  0  0  0  0
  6 17  2  0  0  0  0
  7 17  1  0  0  0  0
  7 18  1  0  0  0  0
  7 32  1  0  0  0  0
  8 18  2  0  0  0  0
  8 21  1  0  0  0  0
  9 13  2  0  0  0  0
  9 14  1  0  0  0  0
  9 17  1  0  0  0  0
 10 11  2  0  0  0  0
 10 12  1  0  0  0  0
 11 13  1  0  0  0  0
 12 14  2  0  0  0  0
 13 30  1  0  0  0  0
 14 31  1  0  0  0  0
 15 16  1  0  0  0  0
 15 19  1  0  0  0  0
 15 21  2  0  0  0  0
 16 22  2  0  0  0  0
 16 23  1  0  0  0  0
 18 20  1  0  0  0  0
 19 20  2  0  0  0  0
 19 33  1  0  0  0  0
 20 34  1  0  0  0  0
 21 35  1  0  0  0  0
 22 25  1  0  0  0  0
 22 36  1  0  0  0  0
 23 24  2  0  0  0  0
 23 37  1  0  0  0  0
 24 26  1  0  0  0  0
 25 26  2  0  0  0  0
 26 38  1  0  0  0  0
 27 39  1  0  0  0  0
 27 40  1  0  0  0  0
 27 41  1  0  0  0  0
 28 42  1  0  0  0  0
 28 43  1  0  0  0  0
 28 44  1  0  0  0  0
 29 45  1  0  0  0  0
 29 46  1  0  0  0  0
 29 47  1  0  0  0  0
M  END
> <PUBCHEM_COMPOUND_CID>
118708511

> <PUBCHEM_CONFORMER_RMSD>
0.8

> <PUBCHEM_CONFORMER_DIVERSEORDER>
1
6
2
5
3
4

> <PUBCHEM_MMFF94_PARTIAL_CHARGES>
36
1 -0.19
10 0.08
11 0.08
12 0.08
13 -0.15
14 -0.15
17 0.54
18 0.43
19 -0.15
2 -0.19
20 -0.15
21 0.16
22 -0.15
23 -0.15
24 0.19
25 0.19
26 -0.15
27 0.28
28 0.28
29 0.28
3 -0.36
30 0.15
31 0.15
32 0.37
33 0.15
34 0.15
35 0.15
36 0.15
37 0.15
38 0.15
4 -0.36
5 -0.36
6 -0.57
7 -0.55
8 -0.62
9 0.09

> <PUBCHEM_EFFECTIVE_ROTOR_COUNT>
7

> <PUBCHEM_PHARMACOPHORE_FEATURES>
8
1 3 acceptor
1 4 acceptor
1 5 acceptor
1 6 acceptor
1 7 donor
6 16 22 23 24 25 26 rings
6 8 15 18 19 20 21 rings
6 9 10 11 12 13 14 rings

> <PUBCHEM_HEAVY_ATOM_COUNT>
29

> <PUBCHEM_ATOM_DEF_STEREO_COUNT>
0

> <PUBCHEM_ATOM_UDEF_STEREO_COUNT>
0

> <PUBCHEM_BOND_DEF_STEREO_COUNT>
0

> <PUBCHEM_BOND_UDEF_STEREO_COUNT>
0

> <PUBCHEM_ISOTOPIC_ATOM_COUNT>
0

> <PUBCHEM_COMPONENT_COUNT>
1

> <PUBCHEM_CACTVS_TAUTO_COUNT>
7

> <PUBCHEM_CONFORMER_ID>
0713591F00000001

> <PUBCHEM_MMFF94_ENERGY>
122.6483

> <PUBCHEM_FEATURE_SELFOVERLAP>
40.607

> <PUBCHEM_SHAPE_FINGERPRINT>
10 15 18411414051312354720
100830 39 18408603626182137261
10299344 5 16298103198490827778
10411042 1 18118127103559435099
10638233 991 16298394573825936324
11135926 11 16558754485828458942
11315181 36 17822013121013189693
11719270 70 18201999907209063302
13073987 5 18261388918979954698
13533116 47 15195296292150115390
13685833 64 18342744035351332258
13885169 127 18408041792729769596
14251764 18 17821443556108525651
14856354 85 16950570994878598763
14933364 13 18413108359970452532
15183329 4 18334295340357687816
15328684 2 17241312582890705760
15419008 47 18272645753322164825
15419008 91 18339063952833093580
15510794 2 18413671322392538014
15849732 13 18343301478860989180
15927050 60 18411415120370178742
17093844 174 18334011714409567979
18608769 82 18410576223389010531
19611394 137 18042416897085436915
20281389 69 18411697673640987160
21150785 3 16128651963859974437
21267235 1 18410019857092731699
21279426 13 18271526391035021276
21315759 40 16588021329423150082
21792961 116 18201158754705828722
23081809 10 16660642938893436048
23559900 14 17774993635405833280
335352 9 18343865528689989566
3383291 50 18115028627166513939
4073 2 18187931724387265682
44280117 145 17988074621551778695
444735 82 18338515357187928776
504843 32 16845002528483273790
5104073 3 18336547110302041251
6441014 3 16158804056588187875
9953998 17 18410863166349296971

> <PUBCHEM_SHAPE_MULTIPOLES>
548.82
25.92
2.31
1.08
16.37
1.02
0.22
-0.61
1.35
-3.98
0.05
0.6
-0.24
3.74

> <PUBCHEM_SHAPE_SELFOVERLAP>
1195.136

> <PUBCHEM_SHAPE_VOLUME>
301.5

> <PUBCHEM_COORDINATE_TYPE>
2
5
10

$$$$