118708519
  -OEChem-03242010103D

 35 37  0     0  0  0  0  0  0999 V2000
   -0.0749    2.5568   -0.0310 F   0  0  0  0  0  0  0  0  0  0  0  0
   -2.3479   -1.9695    0.0235 O   0  0  0  0  0  0  0  0  0  0  0  0
   -1.6604    0.2781   -0.0395 N   0  0  0  0  0  0  0  0  0  0  0  0
    6.0869    0.8635    0.6409 N   0  0  0  0  0  0  0  0  0  0  0  0
    2.5157    0.0064   -0.0097 C   0  0  0  0  0  0  0  0  0  0  0  0
   -0.2681    0.1892   -0.0295 C   0  0  0  0  0  0  0  0  0  0  0  0
    3.9591   -0.0883   -0.0005 C   0  0  0  0  0  0  0  0  0  0  0  0
    1.8988    1.2575   -0.0158 C   0  0  0  0  0  0  0  0  0  0  0  0
    1.7407   -1.1533   -0.0135 C   0  0  0  0  0  0  0  0  0  0  0  0
    0.5070    1.3489   -0.0258 C   0  0  0  0  0  0  0  0  0  0  0  0
    0.3488   -1.0619   -0.0233 C   0  0  0  0  0  0  0  0  0  0  0  0
   -4.0187   -0.3511   -0.0039 C   0  0  0  0  0  0  0  0  0  0  0  0
   -2.5920   -0.7683   -0.0133 C   0  0  0  0  0  0  0  0  0  0  0  0
    4.6106   -1.1655   -0.5911 C   0  0  0  0  0  0  0  0  0  0  0  0
    4.7360    0.8910    0.5971 C   0  0  0  0  0  0  0  0  0  0  0  0
   -4.9832   -1.1797    0.5695 C   0  0  0  0  0  0  0  0  0  0  0  0
   -4.3930    0.8692   -0.5667 C   0  0  0  0  0  0  0  0  0  0  0  0
    5.9994   -1.2293   -0.5664 C   0  0  0  0  0  0  0  0  0  0  0  0
   -6.3219   -0.7880    0.5803 C   0  0  0  0  0  0  0  0  0  0  0  0
   -5.7317    1.2610   -0.5557 C   0  0  0  0  0  0  0  0  0  0  0  0
   -6.6961    0.4324    0.0178 C   0  0  0  0  0  0  0  0  0  0  0  0
    6.6850   -0.1988    0.0563 C   0  0  0  0  0  0  0  0  0  0  0  0
    2.4626    2.1859   -0.0390 H   0  0  0  0  0  0  0  0  0  0  0  0
    2.1794   -2.1471    0.0176 H   0  0  0  0  0  0  0  0  0  0  0  0
   -0.1805   -2.0042   -0.0246 H   0  0  0  0  0  0  0  0  0  0  0  0
   -2.0074    1.2328   -0.0128 H   0  0  0  0  0  0  0  0  0  0  0  0
    4.0777   -1.9611   -1.1040 H   0  0  0  0  0  0  0  0  0  0  0  0
    4.3129    1.7516    1.1057 H   0  0  0  0  0  0  0  0  0  0  0  0
   -4.7125   -2.1319    1.0181 H   0  0  0  0  0  0  0  0  0  0  0  0
   -3.6837    1.5290   -1.0570 H   0  0  0  0  0  0  0  0  0  0  0  0
    6.5292   -2.0560   -1.0258 H   0  0  0  0  0  0  0  0  0  0  0  0
   -7.0730   -1.4326    1.0275 H   0  0  0  0  0  0  0  0  0  0  0  0
   -6.0250    2.2071   -1.0012 H   0  0  0  0  0  0  0  0  0  0  0  0
   -7.7387    0.7366    0.0248 H   0  0  0  0  0  0  0  0  0  0  0  0
    7.7691   -0.2006    0.1012 H   0  0  0  0  0  0  0  0  0  0  0  0
  1 10  1  0  0  0  0
  2 13  2  0  0  0  0
  3  6  1  0  0  0  0
  3 13  1  0  0  0  0
  3 26  1  0  0  0  0
  4 15  1  0  0  0  0
  4 22  2  0  0  0  0
  5  7  1  0  0  0  0
  5  8  2  0  0  0  0
  5  9  1  0  0  0  0
  6 10  2  0  0  0  0
  6 11  1  0  0  0  0
  7 14  1  0  0  0  0
  7 15  2  0  0  0  0
  8 10  1  0  0  0  0
  8 23  1  0  0  0  0
  9 11  2  0  0  0  0
  9 24  1  0  0  0  0
 11 25  1  0  0  0  0
 12 13  1  0  0  0  0
 12 16  2  0  0  0  0
 12 17  1  0  0  0  0
 14 18  2  0  0  0  0
 14 27  1  0  0  0  0
 15 28  1  0  0  0  0
 16 19  1  0  0  0  0
 16 29  1  0  0  0  0
 17 20  2  0  0  0  0
 17 30  1  0  0  0  0
 18 22  1  0  0  0  0
 18 31  1  0  0  0  0
 19 21  2  0  0  0  0
 19 32  1  0  0  0  0
 20 21  1  0  0  0  0
 20 33  1  0  0  0  0
 21 34  1  0  0  0  0
 22 35  1  0  0  0  0
M  END
> <PUBCHEM_COMPOUND_CID>
118708519

> <PUBCHEM_CONFORMER_RMSD>
0.6

> <PUBCHEM_CONFORMER_DIVERSEORDER>
2
14
9
11
6
16
7
3
8
13
4
10
5
12
15
1

> <PUBCHEM_MMFF94_PARTIAL_CHARGES>
33
1 -0.19
10 0.19
11 -0.15
12 0.09
13 0.54
14 -0.15
15 0.16
16 -0.15
17 -0.15
18 -0.15
19 -0.15
2 -0.57
20 -0.15
21 -0.15
22 0.16
23 0.15
24 0.15
25 0.15
26 0.37
27 0.15
28 0.15
29 0.15
3 -0.55
30 0.15
31 0.15
32 0.15
33 0.15
34 0.15
35 0.15
4 -0.62
6 0.12
8 -0.15
9 -0.15

> <PUBCHEM_EFFECTIVE_ROTOR_COUNT>
4

> <PUBCHEM_PHARMACOPHORE_FEATURES>
6
1 2 acceptor
1 3 donor
1 4 acceptor
6 12 16 17 19 20 21 rings
6 4 7 14 15 18 22 rings
6 5 6 8 9 10 11 rings

> <PUBCHEM_HEAVY_ATOM_COUNT>
22

> <PUBCHEM_ATOM_DEF_STEREO_COUNT>
0

> <PUBCHEM_ATOM_UDEF_STEREO_COUNT>
0

> <PUBCHEM_BOND_DEF_STEREO_COUNT>
0

> <PUBCHEM_BOND_UDEF_STEREO_COUNT>
0

> <PUBCHEM_ISOTOPIC_ATOM_COUNT>
0

> <PUBCHEM_COMPONENT_COUNT>
1

> <PUBCHEM_CACTVS_TAUTO_COUNT>
5

> <PUBCHEM_CONFORMER_ID>
0713592700000002

> <PUBCHEM_MMFF94_ENERGY>
74.0368

> <PUBCHEM_FEATURE_SELFOVERLAP>
30.447

> <PUBCHEM_SHAPE_FINGERPRINT>
10 15 18334571386875804560
11089746 13 16917345952546893313
11315181 36 18273217504554222241
11646440 116 18343310279439045225
12091667 2 18410573994522302431
12236239 1 17632858633543575903
12516196 113 18272088305205297225
13402501 40 18410575080558145735
13533116 47 15410621337713560990
13685833 64 18410015446335340179
14251764 18 18342740741179721695
14251764 46 18410291406383989163
14856354 85 16081095887510692795
14933364 13 18410294709198002533
15183329 4 18334010567088745467
15849732 13 18272088305547909711
17980427 23 17131848563877493201
18006028 8 18131913749713270064
19141452 34 18059854008328922502
20281389 69 18334856116931290545
21130935 74 18272936024634366739
21150785 3 17385732400511865014
21236236 1 18201721691685242849
21267235 1 18409174315919268339
21279426 13 18266458702591609431
21315759 40 15719110275382880131
21521721 280 18060419144752655994
21709351 56 18335413604356042991
21792934 111 18340191995901275752
220451 1 15626223515571957471
22224240 67 16702015379682622606
23035841 295 18259983764768397730
23402539 116 18272364291224249375
23536379 177 15864067659126618188
23559900 14 18272362118282196505
3004659 81 18113621192490150892
335352 9 18410855481618842455
34797466 226 16271933739797990184
34934 24 18411411813038742422
3545911 37 18411419510025967963
4073 2 18114185297642549842
4214541 1 18407760352877610365
4325135 7 7997967968797930873
4340502 62 16515682239234563634
4463277 17 18410011039719915420
5104073 3 18200870657358884480
542803 24 16153427246467950703
59755656 215 18337393751572739846
59755656 520 16877942759007069859

> <PUBCHEM_SHAPE_MULTIPOLES>
429.64
18.43
1.68
0.73
2.14
0.3
0
-1.18
-0.55
0.22
0.03
-0.02
-0.01
1.18

> <PUBCHEM_SHAPE_SELFOVERLAP>
947.579

> <PUBCHEM_SHAPE_VOLUME>
230.5

> <PUBCHEM_COORDINATE_TYPE>
2
5
10

$$$$