127044909
  -OEChem-03242010103D

 62 66  0     0  0  0  0  0  0999 V2000
   -8.9525   -0.2527    0.4236 O   0  0  0  0  0  0  0  0  0  0  0  0
   -8.0947   -2.4851   -0.9916 O   0  0  0  0  0  0  0  0  0  0  0  0
   -2.7903    3.8561    0.7124 O   0  0  0  0  0  0  0  0  0  0  0  0
    3.3083    2.0303    0.4072 N   0  0  0  0  0  0  0  0  0  0  0  0
    3.6068   -0.3033    0.4470 N   0  0  0  0  0  0  0  0  0  0  0  0
    5.6598   -1.2935   -0.3349 N   0  0  0  0  0  0  0  0  0  0  0  0
    5.3949    1.0893   -0.3929 C   0  0  0  0  0  0  0  0  0  0  0  0
    4.1255    0.9022    0.1468 C   0  0  0  0  0  0  0  0  0  0  0  0
    6.1473   -0.0740   -0.6231 C   0  0  0  0  0  0  0  0  0  0  0  0
    1.9161    2.2109    0.4108 C   0  0  0  0  0  0  0  0  0  0  0  0
    4.4163   -1.3419    0.1843 C   0  0  0  0  0  0  0  0  0  0  0  0
    5.9148    2.3592   -0.6981 C   0  0  0  0  0  0  0  0  0  0  0  0
    7.4229    0.0730   -1.1625 C   0  0  0  0  0  0  0  0  0  0  0  0
    3.9012   -2.6510    0.4899 C   0  0  0  0  0  0  0  0  0  0  0  0
   -0.8503    2.5697    0.4180 C   0  0  0  0  0  0  0  0  0  0  0  0
    1.3378    3.1575    1.2564 C   0  0  0  0  0  0  0  0  0  0  0  0
    1.1112    1.4437   -0.4314 C   0  0  0  0  0  0  0  0  0  0  0  0
    7.1924    2.4769   -1.2362 C   0  0  0  0  0  0  0  0  0  0  0  0
   -0.0454    3.3368    1.2601 C   0  0  0  0  0  0  0  0  0  0  0  0
   -0.2720    1.6231   -0.4278 C   0  0  0  0  0  0  0  0  0  0  0  0
    7.9471    1.3324   -1.4686 C   0  0  0  0  0  0  0  0  0  0  0  0
   -2.2925    2.7577    0.4218 C   0  0  0  0  0  0  0  0  0  0  0  0
    2.5295   -2.8946    0.4209 C   0  0  0  0  0  0  0  0  0  0  0  0
    4.7740   -3.6759    0.8551 C   0  0  0  0  0  0  0  0  0  0  0  0
   -5.4505    0.6093   -0.1724 C   0  0  0  0  0  0  0  0  0  0  0  0
   -3.1723    1.5833    0.0970 C   0  0  0  0  0  0  0  0  0  0  0  0
   -4.5079    1.7045    0.1161 C   0  0  0  0  0  0  0  0  0  0  0  0
   -6.7726    0.6926    0.2643 C   0  0  0  0  0  0  0  0  0  0  0  0
   -7.6639   -0.3450   -0.0084 C   0  0  0  0  0  0  0  0  0  0  0  0
    2.0307   -4.1630    0.7171 C   0  0  0  0  0  0  0  0  0  0  0  0
    4.2752   -4.9445    1.1513 C   0  0  0  0  0  0  0  0  0  0  0  0
   -5.0197   -0.5119   -0.8820 C   0  0  0  0  0  0  0  0  0  0  0  0
   -7.2332   -1.4660   -0.7179 C   0  0  0  0  0  0  0  0  0  0  0  0
    2.9036   -5.1880    1.0822 C   0  0  0  0  0  0  0  0  0  0  0  0
   -5.9110   -1.5495   -1.1548 C   0  0  0  0  0  0  0  0  0  0  0  0
   -9.3122    0.9259    1.1419 C   0  0  0  0  0  0  0  0  0  0  0  0
   -7.5748   -3.5946   -1.7216 C   0  0  0  0  0  0  0  0  0  0  0  0
    3.8120    2.7842    0.8667 H   0  0  0  0  0  0  0  0  0  0  0  0
    5.3485    3.2721   -0.5365 H   0  0  0  0  0  0  0  0  0  0  0  0
    8.0338   -0.8072   -1.3539 H   0  0  0  0  0  0  0  0  0  0  0  0
    1.9532    3.7609    1.9189 H   0  0  0  0  0  0  0  0  0  0  0  0
    1.5399    0.7148   -1.1142 H   0  0  0  0  0  0  0  0  0  0  0  0
    7.5971    3.4557   -1.4751 H   0  0  0  0  0  0  0  0  0  0  0  0
   -0.4776    4.0762    1.9294 H   0  0  0  0  0  0  0  0  0  0  0  0
   -0.8563    1.0327   -1.1272 H   0  0  0  0  0  0  0  0  0  0  0  0
    8.9452    1.4154   -1.8889 H   0  0  0  0  0  0  0  0  0  0  0  0
    1.8240   -2.1200    0.1300 H   0  0  0  0  0  0  0  0  0  0  0  0
    5.8471   -3.5160    0.9281 H   0  0  0  0  0  0  0  0  0  0  0  0
   -2.6945    0.6286   -0.0808 H   0  0  0  0  0  0  0  0  0  0  0  0
   -4.9670    2.6620    0.3500 H   0  0  0  0  0  0  0  0  0  0  0  0
   -7.0543    1.5852    0.8136 H   0  0  0  0  0  0  0  0  0  0  0  0
    0.9629   -4.3537    0.6615 H   0  0  0  0  0  0  0  0  0  0  0  0
    4.9543   -5.7422    1.4379 H   0  0  0  0  0  0  0  0  0  0  0  0
   -4.0064   -0.6100   -1.2604 H   0  0  0  0  0  0  0  0  0  0  0  0
   -5.5087   -2.3867   -1.7147 H   0  0  0  0  0  0  0  0  0  0  0  0
    2.5151   -6.1757    1.3129 H   0  0  0  0  0  0  0  0  0  0  0  0
  -10.3704    0.8304    1.4070 H   0  0  0  0  0  0  0  0  0  0  0  0
   -9.2215    1.8223    0.5190 H   0  0  0  0  0  0  0  0  0  0  0  0
   -8.7567    1.0115    2.0820 H   0  0  0  0  0  0  0  0  0  0  0  0
   -8.3944   -4.3098   -1.8478 H   0  0  0  0  0  0  0  0  0  0  0  0
   -6.7859   -4.1108   -1.1640 H   0  0  0  0  0  0  0  0  0  0  0  0
   -7.2519   -3.3011   -2.7263 H   0  0  0  0  0  0  0  0  0  0  0  0
  1 29  1  0  0  0  0
  1 36  1  0  0  0  0
  2 33  1  0  0  0  0
  2 37  1  0  0  0  0
  3 22  2  0  0  0  0
  4  8  1  0  0  0  0
  4 10  1  0  0  0  0
  4 38  1  0  0  0  0
  5  8  2  0  0  0  0
  5 11  1  0  0  0  0
  6  9  1  0  0  0  0
  6 11  2  0  0  0  0
  7  8  1  0  0  0  0
  7  9  1  0  0  0  0
  7 12  2  0  0  0  0
  9 13  2  0  0  0  0
 10 16  2  0  0  0  0
 10 17  1  0  0  0  0
 11 14  1  0  0  0  0
 12 18  1  0  0  0  0
 12 39  1  0  0  0  0
 13 21  1  0  0  0  0
 13 40  1  0  0  0  0
 14 23  2  0  0  0  0
 14 24  1  0  0  0  0
 15 19  2  0  0  0  0
 15 20  1  0  0  0  0
 15 22  1  0  0  0  0
 16 19  1  0  0  0  0
 16 41  1  0  0  0  0
 17 20  2  0  0  0  0
 17 42  1  0  0  0  0
 18 21  2  0  0  0  0
 18 43  1  0  0  0  0
 19 44  1  0  0  0  0
 20 45  1  0  0  0  0
 21 46  1  0  0  0  0
 22 26  1  0  0  0  0
 23 30  1  0  0  0  0
 23 47  1  0  0  0  0
 24 31  2  0  0  0  0
 24 48  1  0  0  0  0
 25 27  1  0  0  0  0
 25 28  2  0  0  0  0
 25 32  1  0  0  0  0
 26 27  2  0  0  0  0
 26 49  1  0  0  0  0
 27 50  1  0  0  0  0
 28 29  1  0  0  0  0
 28 51  1  0  0  0  0
 29 33  2  0  0  0  0
 30 34  2  0  0  0  0
 30 52  1  0  0  0  0
 31 34  1  0  0  0  0
 31 53  1  0  0  0  0
 32 35  2  0  0  0  0
 32 54  1  0  0  0  0
 33 35  1  0  0  0  0
 34 56  1  0  0  0  0
 35 55  1  0  0  0  0
 36 57  1  0  0  0  0
 36 58  1  0  0  0  0
 36 59  1  0  0  0  0
 37 60  1  0  0  0  0
 37 61  1  0  0  0  0
 37 62  1  0  0  0  0
M  END
> <PUBCHEM_COMPOUND_CID>
127044909

> <PUBCHEM_CONFORMER_RMSD>
1

> <PUBCHEM_CONFORMER_DIVERSEORDER>
4
26
50
60
12
31
91
7
14
57
66
56
44
63
43
90
36
55
38
75
13
89
35
22
30
83
62
37
32
52
81
79
61
16
34
73
17
85
78
25
84
64
6
19
70
82
72
74
47
21
68
15
42
23
1
45
88
24
8
71
11
67
87
69
65
18
29
28
77
76
53
49
39
40
27
10
46
59
9
33
2
80
58
48
5
86
54
41
3
20
51

> <PUBCHEM_MMFF94_PARTIAL_CHARGES>
54
1 -0.36
10 0.1
11 0.62
12 -0.15
13 -0.15
15 0.09
16 -0.15
17 -0.15
18 -0.15
19 -0.15
2 -0.36
20 -0.15
21 -0.15
22 0.47
23 -0.15
24 -0.15
25 0.03
26 -0.14
27 -0.18
28 -0.15
29 0.08
3 -0.57
30 -0.15
31 -0.15
32 -0.15
33 0.08
34 -0.15
35 -0.15
36 0.28
37 0.28
38 0.4
39 0.15
4 -0.6
40 0.15
41 0.15
42 0.15
43 0.15
44 0.15
45 0.15
46 0.15
47 0.15
48 0.15
49 0.15
5 -0.62
50 0.15
51 0.15
52 0.15
53 0.15
54 0.15
55 0.15
56 0.15
6 -0.62
8 0.41
9 0.31

> <PUBCHEM_EFFECTIVE_ROTOR_COUNT>
8

> <PUBCHEM_PHARMACOPHORE_FEATURES>
11
1 1 acceptor
1 2 acceptor
1 3 acceptor
1 4 donor
3 4 5 8 cation
3 5 6 11 cation
6 10 15 16 17 19 20 rings
6 14 23 24 30 31 34 rings
6 25 28 29 32 33 35 rings
6 5 6 7 8 9 11 rings
6 7 9 12 13 18 21 rings

> <PUBCHEM_HEAVY_ATOM_COUNT>
37

> <PUBCHEM_ATOM_DEF_STEREO_COUNT>
0

> <PUBCHEM_ATOM_UDEF_STEREO_COUNT>
0

> <PUBCHEM_BOND_DEF_STEREO_COUNT>
1

> <PUBCHEM_BOND_UDEF_STEREO_COUNT>
0

> <PUBCHEM_ISOTOPIC_ATOM_COUNT>
0

> <PUBCHEM_COMPONENT_COUNT>
1

> <PUBCHEM_CACTVS_TAUTO_COUNT>
9

> <PUBCHEM_CONFORMER_ID>
07928D2D00000004

> <PUBCHEM_MMFF94_ENERGY>
152.9941

> <PUBCHEM_FEATURE_SELFOVERLAP>
55.999

> <PUBCHEM_SHAPE_FINGERPRINT>
10622 236 18122613964548883082
11103572 155 18336548201856892385
11443803 9 18186798128753577608
11497681 19 18408887304767039676
117089 54 18196092140368907003
11963148 33 18411692188772701391
12144603 126 18341903970113933169
12728208 25 17274831225254281375
13248334 5 17767680921474029921
1361 2 18334018289857103600
1361 4 18411418380270143127
13692114 37 18336260228789407058
14394314 77 18412831270577993945
15250474 111 18195806259187819112
15320295 44 18267306417551118410
15347590 135 17988346149136734992
15347591 1 18191305970432224605
15351339 4 18334565837625350555
15467298 65 18339638915646193443
15911013 46 18410855478147249649
16628084 112 18263923250933256699
17134984 74 18408604760580796760
17324776 126 17030205087558507210
18365409 1 18191877936486578982
19319366 153 18411134728562697700
19841028 212 18261674757738364395
20775438 99 18114185177652536882
23522609 53 18054823730011767921
23569917 315 18268714901840059230
23729417 116 17540819392199957270
24893989 43 17844525723954208014
24983565 74 17341794975343030535
25222932 49 18342737391131695996
437795 163 18410294731079170623
439807 62 18410012109499464809
44880168 125 16702015340558360884
50009960 94 17825091620200838482
6057620 51 18411145749053984524
6058803 2 17979931415088328736
6677587 24 15215028123359235774
6697151 62 17631427048331425945
9831232 110 18410845569199092897

> <PUBCHEM_SHAPE_MULTIPOLES>
728.89
27.98
6.37
1.25
44.79
7.68
-0.17
7.16
-8.81
-6.13
2.33
0.04
0.28
-5.98

> <PUBCHEM_SHAPE_SELFOVERLAP>
1614.696

> <PUBCHEM_SHAPE_VOLUME>
388.3

> <PUBCHEM_COORDINATE_TYPE>
2
5
10

$$$$