134131064
  -OEChem-03242010103D

 45 48  0     0  0  0  0  0  0999 V2000
    5.0603    2.3450   -0.2043 O   0  0  0  0  0  0  0  0  0  0  0  0
   -1.0635    3.7662    0.2371 O   0  0  0  0  0  0  0  0  0  0  0  0
   -1.2337    1.4368   -0.0278 N   0  0  0  0  0  0  0  0  0  0  0  0
   -0.7157   -2.5301   -0.1317 N   0  0  0  0  0  0  0  0  0  0  0  0
   -1.0419   -1.2952    0.2754 N   0  0  0  0  0  0  0  0  0  0  0  0
   -2.6855   -2.3546   -0.8665 N   0  0  0  0  0  0  0  0  0  0  0  0
   -1.6596   -3.1951   -0.8120 N   0  0  0  0  0  0  0  0  0  0  0  0
   -3.1388   -0.0813   -0.0551 C   0  0  0  0  0  0  0  0  0  0  0  0
   -2.6123    1.2074    0.0316 C   0  0  0  0  0  0  0  0  0  0  0  0
   -2.2849   -1.2299   -0.2084 C   0  0  0  0  0  0  0  0  0  0  0  0
   -4.5185   -0.2766    0.0066 C   0  0  0  0  0  0  0  0  0  0  0  0
   -3.4655    2.3009    0.1799 C   0  0  0  0  0  0  0  0  0  0  0  0
    0.9213    2.5760    0.0012 C   0  0  0  0  0  0  0  0  0  0  0  0
   -0.5611    2.6594    0.0746 C   0  0  0  0  0  0  0  0  0  0  0  0
   -5.3717    0.8170    0.1549 C   0  0  0  0  0  0  0  0  0  0  0  0
   -4.8453    2.1057    0.2416 C   0  0  0  0  0  0  0  0  0  0  0  0
    0.5276   -3.0897    0.1361 C   0  0  0  0  0  0  0  0  0  0  0  0
    1.7056    3.5472    0.6236 C   0  0  0  0  0  0  0  0  0  0  0  0
    1.5279    1.5273   -0.6901 C   0  0  0  0  0  0  0  0  0  0  0  0
    3.7032    2.4209   -0.1367 C   0  0  0  0  0  0  0  0  0  0  0  0
    3.0966    3.4696    0.5547 C   0  0  0  0  0  0  0  0  0  0  0  0
    2.9188    1.4498   -0.7589 C   0  0  0  0  0  0  0  0  0  0  0  0
    1.4808   -2.3625    0.8488 C   0  0  0  0  0  0  0  0  0  0  0  0
    0.8218   -4.3793   -0.3064 C   0  0  0  0  0  0  0  0  0  0  0  0
    2.7284   -2.9248    1.1191 C   0  0  0  0  0  0  0  0  0  0  0  0
    2.0693   -4.9418   -0.0362 C   0  0  0  0  0  0  0  0  0  0  0  0
    3.0227   -4.2145    0.6765 C   0  0  0  0  0  0  0  0  0  0  0  0
    5.6139    1.2464   -0.9274 C   0  0  0  0  0  0  0  0  0  0  0  0
   -0.6669    0.6005   -0.1072 H   0  0  0  0  0  0  0  0  0  0  0  0
   -4.9551   -1.2708   -0.0530 H   0  0  0  0  0  0  0  0  0  0  0  0
   -3.1489    3.3308    0.2484 H   0  0  0  0  0  0  0  0  0  0  0  0
   -6.4461    0.6651    0.2039 H   0  0  0  0  0  0  0  0  0  0  0  0
   -5.5113    2.9562    0.3558 H   0  0  0  0  0  0  0  0  0  0  0  0
    1.2533    4.3695    1.1717 H   0  0  0  0  0  0  0  0  0  0  0  0
    0.9595    0.7714   -1.2234 H   0  0  0  0  0  0  0  0  0  0  0  0
    3.7026    4.2283    1.0424 H   0  0  0  0  0  0  0  0  0  0  0  0
    3.3243    0.6136   -1.3185 H   0  0  0  0  0  0  0  0  0  0  0  0
    1.2899   -1.3554    1.2103 H   0  0  0  0  0  0  0  0  0  0  0  0
    0.1065   -4.9781   -0.8643 H   0  0  0  0  0  0  0  0  0  0  0  0
    3.4712   -2.3584    1.6733 H   0  0  0  0  0  0  0  0  0  0  0  0
    2.2990   -5.9460   -0.3806 H   0  0  0  0  0  0  0  0  0  0  0  0
    3.9941   -4.6523    0.8866 H   0  0  0  0  0  0  0  0  0  0  0  0
    6.7034    1.3422   -0.8767 H   0  0  0  0  0  0  0  0  0  0  0  0
    5.3388    1.2827   -1.9870 H   0  0  0  0  0  0  0  0  0  0  0  0
    5.3554    0.2882   -0.4638 H   0  0  0  0  0  0  0  0  0  0  0  0
  1 20  1  0  0  0  0
  1 28  1  0  0  0  0
  2 14  2  0  0  0  0
  3  9  1  0  0  0  0
  3 14  1  0  0  0  0
  3 29  1  0  0  0  0
  4  5  1  0  0  0  0
  4  7  1  0  0  0  0
  4 17  1  0  0  0  0
  5 10  2  0  0  0  0
  6  7  2  0  0  0  0
  6 10  1  0  0  0  0
  8  9  1  0  0  0  0
  8 10  1  0  0  0  0
  8 11  2  0  0  0  0
  9 12  2  0  0  0  0
 11 15  1  0  0  0  0
 11 30  1  0  0  0  0
 12 16  1  0  0  0  0
 12 31  1  0  0  0  0
 13 14  1  0  0  0  0
 13 18  2  0  0  0  0
 13 19  1  0  0  0  0
 15 16  2  0  0  0  0
 15 32  1  0  0  0  0
 16 33  1  0  0  0  0
 17 23  2  0  0  0  0
 17 24  1  0  0  0  0
 18 21  1  0  0  0  0
 18 34  1  0  0  0  0
 19 22  2  0  0  0  0
 19 35  1  0  0  0  0
 20 21  2  0  0  0  0
 20 22  1  0  0  0  0
 21 36  1  0  0  0  0
 22 37  1  0  0  0  0
 23 25  1  0  0  0  0
 23 38  1  0  0  0  0
 24 26  2  0  0  0  0
 24 39  1  0  0  0  0
 25 27  2  0  0  0  0
 25 40  1  0  0  0  0
 26 27  1  0  0  0  0
 26 41  1  0  0  0  0
 27 42  1  0  0  0  0
 28 43  1  0  0  0  0
 28 44  1  0  0  0  0
 28 45  1  0  0  0  0
M  END
> <PUBCHEM_COMPOUND_CID>
134131064

> <PUBCHEM_CONFORMER_RMSD>
0.8

> <PUBCHEM_CONFORMER_DIVERSEORDER>
1
17
16
20
2
12
14
9
10
8
15
13
5
4
18
19
21
3
11
6
7

> <PUBCHEM_MMFF94_PARTIAL_CHARGES>
42
1 -0.36
10 0.46
11 -0.15
12 -0.15
13 0.09
14 0.54
15 -0.15
16 -0.15
17 -0.02
18 -0.15
19 -0.15
2 -0.57
20 0.08
21 -0.15
22 -0.15
23 -0.15
24 -0.15
25 -0.15
26 -0.15
27 -0.15
28 0.28
29 0.37
3 -0.55
30 0.15
31 0.15
32 0.15
33 0.15
34 0.15
35 0.15
36 0.15
37 0.15
38 0.15
39 0.15
4 0.86
40 0.15
41 0.15
42 0.15
5 -0.71
6 -0.23
7 -0.42
8 0.05
9 0.12

> <PUBCHEM_EFFECTIVE_ROTOR_COUNT>
6

> <PUBCHEM_PHARMACOPHORE_FEATURES>
8
1 1 acceptor
1 2 acceptor
1 3 donor
3 5 6 10 cation
5 4 5 6 7 10 rings
6 13 18 19 20 21 22 rings
6 17 23 24 25 26 27 rings
6 8 9 11 12 15 16 rings

> <PUBCHEM_HEAVY_ATOM_COUNT>
28

> <PUBCHEM_ATOM_DEF_STEREO_COUNT>
0

> <PUBCHEM_ATOM_UDEF_STEREO_COUNT>
0

> <PUBCHEM_BOND_DEF_STEREO_COUNT>
0

> <PUBCHEM_BOND_UDEF_STEREO_COUNT>
0

> <PUBCHEM_ISOTOPIC_ATOM_COUNT>
0

> <PUBCHEM_COMPONENT_COUNT>
1

> <PUBCHEM_CACTVS_TAUTO_COUNT>
6

> <PUBCHEM_CONFORMER_ID>
07FEAD7800000001

> <PUBCHEM_MMFF94_ENERGY>
94.6231

> <PUBCHEM_FEATURE_SELFOVERLAP>
40.597

> <PUBCHEM_SHAPE_FINGERPRINT>
10050765 1 18338518531384577081
10190108 129 17976273636318635035
10693767 8 16835707459452382063
1100329 8 18410572860376675138
11014199 57 17546730348708110890
12156800 1 16198430296232112975
12788726 201 17253988066256478720
138480 1 18194401078499479059
14028597 1 17845676806055815953
140371 6 17403458477524374909
14114211 68 17971788573020216036
14251757 5 17759260869938126236
14363568 33 18195265341936617323
14659021 117 17547842410188296816
14725015 67 17908702087410984455
14790565 3 18337114574229426500
14866123 147 18195530526176298515
15320467 1 18338797797861419506
15322534 239 18338240478726330454
15400415 2 18338516464255815040
15927050 60 18341050804671996839
15961568 22 17907859496796307238
16719943 64 18337674243170172880
167882 2 18337105653993673061
17627616 140 18409165493581903134
17859628 97 18337675333648975273
18336668 15 17681565727143520342
19591789 44 18338237196822592537
19611394 137 18188790339705292971
19930381 70 18337952264407680201
20642791 35 18339933601973747454
21133410 171 16686767580447422382
21133410 32 13705132941654245232
21344244 246 18337657660644347989
21796203 349 17259668787560114960
23559900 14 18049711924538828033
3298306 158 18408606967513452925
5265222 85 18118419547081143748
5385378 56 18338809940119529273
57091435 65 18337395937272814627
9709674 26 17621320572953990060
9981440 41 18264205983903219659

> <PUBCHEM_SHAPE_MULTIPOLES>
539.58
9.37
7.53
0.84
3.93
4.31
0.01
-4.19
-0.32
-8.75
0.46
-0.45
0.14
-1.48

> <PUBCHEM_SHAPE_SELFOVERLAP>
1191.427

> <PUBCHEM_SHAPE_VOLUME>
289.4

> <PUBCHEM_COORDINATE_TYPE>
2
5
10

$$$$