134129908
  -OEChem-03242010103D

 43 46  0     0  0  0  0  0  0999 V2000
   -2.3851    3.2540    0.3070 O   0  0  0  0  0  0  0  0  0  0  0  0
    4.3814    2.1113   -1.1151 O   0  5  0  0  0  0  0  0  0  0  0  0
    2.8430    0.6690   -1.7252 O   0  0  0  0  0  0  0  0  0  0  0  0
   -1.7170    1.0169    0.0349 N   0  0  0  0  0  0  0  0  0  0  0  0
    0.1585   -2.5176   -0.0370 N   0  0  0  0  0  0  0  0  0  0  0  0
   -0.5992   -1.4818    0.3505 N   0  0  0  0  0  0  0  0  0  0  0  0
   -1.7075   -3.0265   -0.8796 N   0  0  0  0  0  0  0  0  0  0  0  0
   -0.4569   -3.4574   -0.7679 N   0  0  0  0  0  0  0  0  0  0  0  0
    3.1893    1.7201   -1.1342 N   0  3  0  0  0  0  0  0  0  0  0  0
   -2.9677   -1.0696   -0.0963 C   0  0  0  0  0  0  0  0  0  0  0  0
   -2.9297    0.3200    0.0183 C   0  0  0  0  0  0  0  0  0  0  0  0
   -1.7596   -1.8452   -0.2013 C   0  0  0  0  0  0  0  0  0  0  0  0
   -4.1936   -1.7349   -0.1107 C   0  0  0  0  0  0  0  0  0  0  0  0
   -4.1176    1.0443    0.1184 C   0  0  0  0  0  0  0  0  0  0  0  0
   -0.1002    2.8353    0.1820 C   0  0  0  0  0  0  0  0  0  0  0  0
   -1.5200    2.3951    0.1733 C   0  0  0  0  0  0  0  0  0  0  0  0
   -5.3815   -1.0106   -0.0106 C   0  0  0  0  0  0  0  0  0  0  0  0
   -5.3436    0.3790    0.1040 C   0  0  0  0  0  0  0  0  0  0  0  0
    1.5033   -2.6134    0.2995 C   0  0  0  0  0  0  0  0  0  0  0  0
    0.8696    2.0772   -0.4738 C   0  0  0  0  0  0  0  0  0  0  0  0
    0.2618    4.0075    0.8459 C   0  0  0  0  0  0  0  0  0  0  0  0
    2.2016    2.4910   -0.4658 C   0  0  0  0  0  0  0  0  0  0  0  0
    1.5938    4.4214    0.8538 C   0  0  0  0  0  0  0  0  0  0  0  0
    2.5637    3.6631    0.1980 C   0  0  0  0  0  0  0  0  0  0  0  0
    2.1040   -1.6127    1.0631 C   0  0  0  0  0  0  0  0  0  0  0  0
    2.2520   -3.7109   -0.1251 C   0  0  0  0  0  0  0  0  0  0  0  0
    3.4536   -1.7095    1.4023 C   0  0  0  0  0  0  0  0  0  0  0  0
    3.6015   -3.8079    0.2140 C   0  0  0  0  0  0  0  0  0  0  0  0
    4.2024   -2.8071    0.9777 C   0  0  0  0  0  0  0  0  0  0  0  0
   -0.8913    0.4310   -0.0078 H   0  0  0  0  0  0  0  0  0  0  0  0
   -4.2517   -2.8176   -0.1936 H   0  0  0  0  0  0  0  0  0  0  0  0
   -4.1847    2.1185    0.2034 H   0  0  0  0  0  0  0  0  0  0  0  0
   -6.3361   -1.5284   -0.0209 H   0  0  0  0  0  0  0  0  0  0  0  0
   -6.2696    0.9416    0.1806 H   0  0  0  0  0  0  0  0  0  0  0  0
    0.5919    1.1885   -1.0328 H   0  0  0  0  0  0  0  0  0  0  0  0
   -0.4771    4.6101    1.3674 H   0  0  0  0  0  0  0  0  0  0  0  0
    1.8758    5.3335    1.3718 H   0  0  0  0  0  0  0  0  0  0  0  0
    3.5914    4.0162    0.2256 H   0  0  0  0  0  0  0  0  0  0  0  0
    1.5550   -0.7420    1.4122 H   0  0  0  0  0  0  0  0  0  0  0  0
    1.8209   -4.5111   -0.7212 H   0  0  0  0  0  0  0  0  0  0  0  0
    3.9219   -0.9297    1.9958 H   0  0  0  0  0  0  0  0  0  0  0  0
    4.1850   -4.6623   -0.1165 H   0  0  0  0  0  0  0  0  0  0  0  0
    5.2533   -2.8823    1.2413 H   0  0  0  0  0  0  0  0  0  0  0  0
  1 16  2  0  0  0  0
  2  9  1  0  0  0  0
  3  9  2  0  0  0  0
  4 11  1  0  0  0  0
  4 16  1  0  0  0  0
  4 30  1  0  0  0  0
  5  6  1  0  0  0  0
  5  8  1  0  0  0  0
  5 19  1  0  0  0  0
  6 12  2  0  0  0  0
  7  8  2  0  0  0  0
  7 12  1  0  0  0  0
  9 22  1  0  0  0  0
 10 11  1  0  0  0  0
 10 12  1  0  0  0  0
 10 13  2  0  0  0  0
 11 14  2  0  0  0  0
 13 17  1  0  0  0  0
 13 31  1  0  0  0  0
 14 18  1  0  0  0  0
 14 32  1  0  0  0  0
 15 16  1  0  0  0  0
 15 20  2  0  0  0  0
 15 21  1  0  0  0  0
 17 18  2  0  0  0  0
 17 33  1  0  0  0  0
 18 34  1  0  0  0  0
 19 25  2  0  0  0  0
 19 26  1  0  0  0  0
 20 22  1  0  0  0  0
 20 35  1  0  0  0  0
 21 23  2  0  0  0  0
 21 36  1  0  0  0  0
 22 24  2  0  0  0  0
 23 24  1  0  0  0  0
 23 37  1  0  0  0  0
 24 38  1  0  0  0  0
 25 27  1  0  0  0  0
 25 39  1  0  0  0  0
 26 28  2  0  0  0  0
 26 40  1  0  0  0  0
 27 29  2  0  0  0  0
 27 41  1  0  0  0  0
 28 29  1  0  0  0  0
 28 42  1  0  0  0  0
 29 43  1  0  0  0  0
M  CHG  2   2  -1   9   1
M  END
> <PUBCHEM_COMPOUND_CID>
134129908

> <PUBCHEM_CONFORMER_RMSD>
0.8

> <PUBCHEM_CONFORMER_DIVERSEORDER>
1
61
32
29
5
15
50
36
21
41
11
57
34
35
13
48
37
56
42
24
46
52
12
40
6
19
20
27
7
49
10
45
26
22
3
59
39
47
54
18
38
8
28
43
51
31
16
60
23
33
9
2
55
30
17
44
53
14
58
25
4

> <PUBCHEM_MMFF94_PARTIAL_CHARGES>
43
1 -0.57
10 0.05
11 0.12
12 0.46
13 -0.15
14 -0.15
15 0.09
16 0.54
17 -0.15
18 -0.15
19 -0.02
2 -0.52
20 -0.15
21 -0.15
22 0.13
23 -0.15
24 -0.15
25 -0.15
26 -0.15
27 -0.15
28 -0.15
29 -0.15
3 -0.52
30 0.37
31 0.15
32 0.15
33 0.15
34 0.15
35 0.15
36 0.15
37 0.15
38 0.15
39 0.15
4 -0.55
40 0.15
41 0.15
42 0.15
43 0.15
5 0.86
6 -0.71
7 -0.23
8 -0.42
9 0.91

> <PUBCHEM_EFFECTIVE_ROTOR_COUNT>
6

> <PUBCHEM_PHARMACOPHORE_FEATURES>
10
1 1 acceptor
1 2 acceptor
1 2 anion
1 3 acceptor
1 4 donor
3 6 7 12 cation
5 5 6 7 8 12 rings
6 10 11 13 14 17 18 rings
6 15 20 21 22 23 24 rings
6 19 25 26 27 28 29 rings

> <PUBCHEM_HEAVY_ATOM_COUNT>
29

> <PUBCHEM_ATOM_DEF_STEREO_COUNT>
0

> <PUBCHEM_ATOM_UDEF_STEREO_COUNT>
0

> <PUBCHEM_BOND_DEF_STEREO_COUNT>
0

> <PUBCHEM_BOND_UDEF_STEREO_COUNT>
0

> <PUBCHEM_ISOTOPIC_ATOM_COUNT>
0

> <PUBCHEM_COMPONENT_COUNT>
1

> <PUBCHEM_CACTVS_TAUTO_COUNT>
6

> <PUBCHEM_CONFORMER_ID>
07FEA8F400000001

> <PUBCHEM_MMFF94_ENERGY>
91.9332

> <PUBCHEM_FEATURE_SELFOVERLAP>
50.828

> <PUBCHEM_SHAPE_FINGERPRINT>
10670039 82 17977678511262216294
1100329 8 18338794649602834464
11014199 57 18122910819840507682
11513181 2 18057602062734509918
11578080 2 17604132767492990431
13140716 1 18051129499378969529
13642711 20 17043982448937033439
138480 1 18410852140234525721
14028597 1 17628664095942652051
140371 6 17979356357241394949
14114211 68 17898319287582794772
14117953 113 17980198583185324957
14394314 77 18340492170860560408
14725015 67 17044005560239837770
14955137 171 18338517434991718427
15351339 4 18408045109045921874
15927050 60 18052820540089318351
15961568 22 18340765923781146782
16719943 64 17977101589616163096
17627616 140 18336825406744365854
18336668 15 18041842792669430758
19611394 137 18188218692184634482
19930381 70 18410290358786482963
21796203 349 17905929956583076256
22113638 7 18340475686553927943
23559900 14 18266162969114818611
25019877 29 17130685245862465015
3298306 158 18263643034197451285
463206 1 18409168848299293768
474144 1 18259707787692574382
57091435 65 18409164450068237690
6287921 2 17475801953317370754

> <PUBCHEM_SHAPE_MULTIPOLES>
549.31
8.85
6.89
1.01
6.05
3.56
0.09
-4.68
-0.36
-5.99
-0.51
-0.99
0.15
-1.64

> <PUBCHEM_SHAPE_SELFOVERLAP>
1218.395

> <PUBCHEM_SHAPE_VOLUME>
293.2

> <PUBCHEM_COORDINATE_TYPE>
2
5
10

$$$$