137638388
  -OEChem-03242010103D

 55 58  0     1  0  0  0  0  0999 V2000
   -1.2319   -2.8971   -0.8694 O   0  0  0  0  0  0  0  0  0  0  0  0
   -3.0535   -1.7699   -1.7346 O   0  0  0  0  0  0  0  0  0  0  0  0
   -0.0008    3.0235    0.6415 O   0  0  0  0  0  0  0  0  0  0  0  0
   -2.2832   -0.9587    1.4937 N   0  0  2  0  0  0  0  0  0  0  0  0
    2.5357    1.5463   -0.4308 N   0  0  0  0  0  0  0  0  0  0  0  0
   -1.9728    0.7370   -1.0317 C   0  0  1  0  0  0  0  0  0  0  0  0
   -1.2489   -0.5576   -0.6792 C   0  0  1  0  0  0  0  0  0  0  0  0
   -3.0236    1.0895    0.0779 C   0  0  2  0  0  0  0  0  0  0  0  0
   -1.0405   -0.5122    0.8544 C   0  0  2  0  0  0  0  0  0  0  0  0
   -3.4212   -0.1463    0.9612 C   0  0  0  0  0  0  0  0  0  0  0  0
   -0.8960    1.8417   -1.2460 C   0  0  0  0  0  0  0  0  0  0  0  0
    0.3588   -1.0271    1.1872 C   0  0  0  0  0  0  0  0  0  0  0  0
   -4.2716    1.7237   -0.5396 C   0  0  0  0  0  0  0  0  0  0  0  0
    1.4235   -0.1239    0.5533 C   0  0  0  0  0  0  0  0  0  0  0  0
   -1.9707   -1.7899   -1.1649 C   0  0  0  0  0  0  0  0  0  0  0  0
    0.1372    2.0662   -0.1214 C   0  0  0  0  0  0  0  0  0  0  0  0
    1.2853    1.1596   -0.0057 C   0  0  0  0  0  0  0  0  0  0  0  0
   -2.2230   -0.9031    2.9507 C   0  0  0  0  0  0  0  0  0  0  0  0
    2.8062   -0.4910    0.4224 C   0  0  0  0  0  0  0  0  0  0  0  0
   -5.2786    2.1069    0.5260 C   0  0  0  0  0  0  0  0  0  0  0  0
    3.4678    0.5673   -0.1955 C   0  0  0  0  0  0  0  0  0  0  0  0
    3.5540   -1.6339    0.7791 C   0  0  0  0  0  0  0  0  0  0  0  0
    2.8309    2.8205   -1.0579 C   0  0  0  0  0  0  0  0  0  0  0  0
    4.8385    0.5446   -0.4783 C   0  0  0  0  0  0  0  0  0  0  0  0
    4.9253   -1.6733    0.5029 C   0  0  0  0  0  0  0  0  0  0  0  0
   -1.8031   -4.1442   -1.2773 C   0  0  0  0  0  0  0  0  0  0  0  0
    5.5562   -0.5985   -0.1175 C   0  0  0  0  0  0  0  0  0  0  0  0
   -2.4925    0.6263   -1.9924 H   0  0  0  0  0  0  0  0  0  0  0  0
   -0.3126   -0.5918   -1.2506 H   0  0  0  0  0  0  0  0  0  0  0  0
   -2.5863    1.8400    0.7513 H   0  0  0  0  0  0  0  0  0  0  0  0
   -0.9636    0.5164    1.2182 H   0  0  0  0  0  0  0  0  0  0  0  0
   -4.0343    0.1992    1.8020 H   0  0  0  0  0  0  0  0  0  0  0  0
   -4.0710   -0.8177    0.3881 H   0  0  0  0  0  0  0  0  0  0  0  0
   -1.3972    2.8011   -1.4265 H   0  0  0  0  0  0  0  0  0  0  0  0
   -0.3318    1.6255   -2.1630 H   0  0  0  0  0  0  0  0  0  0  0  0
    0.4933   -2.0600    0.8499 H   0  0  0  0  0  0  0  0  0  0  0  0
    0.5272   -1.0141    2.2704 H   0  0  0  0  0  0  0  0  0  0  0  0
   -3.9840    2.6225   -1.0981 H   0  0  0  0  0  0  0  0  0  0  0  0
   -4.7427    1.0386   -1.2543 H   0  0  0  0  0  0  0  0  0  0  0  0
   -1.4427   -1.5683    3.3344 H   0  0  0  0  0  0  0  0  0  0  0  0
   -3.1641   -1.2569    3.3868 H   0  0  0  0  0  0  0  0  0  0  0  0
   -2.0311    0.1105    3.3202 H   0  0  0  0  0  0  0  0  0  0  0  0
   -5.7770    1.2328    0.9552 H   0  0  0  0  0  0  0  0  0  0  0  0
   -6.0638    2.7292    0.0829 H   0  0  0  0  0  0  0  0  0  0  0  0
   -4.8154    2.6838    1.3328 H   0  0  0  0  0  0  0  0  0  0  0  0
    3.0772   -2.4809    1.2644 H   0  0  0  0  0  0  0  0  0  0  0  0
    3.6165    2.6865   -1.8053 H   0  0  0  0  0  0  0  0  0  0  0  0
    1.9432    3.2052   -1.5647 H   0  0  0  0  0  0  0  0  0  0  0  0
    3.1564    3.5127   -0.2774 H   0  0  0  0  0  0  0  0  0  0  0  0
    5.3423    1.3785   -0.9552 H   0  0  0  0  0  0  0  0  0  0  0  0
    5.5022   -2.5526    0.7766 H   0  0  0  0  0  0  0  0  0  0  0  0
   -1.1181   -4.9439   -0.9835 H   0  0  0  0  0  0  0  0  0  0  0  0
   -1.9250   -4.1674   -2.3644 H   0  0  0  0  0  0  0  0  0  0  0  0
   -2.7631   -4.3022   -0.7766 H   0  0  0  0  0  0  0  0  0  0  0  0
    6.6226   -0.6471   -0.3225 H   0  0  0  0  0  0  0  0  0  0  0  0
  1 15  1  0  0  0  0
  1 26  1  0  0  0  0
  2 15  2  0  0  0  0
  3 16  2  0  0  0  0
  4  9  1  0  0  0  0
  4 10  1  0  0  0  0
  4 18  1  0  0  0  0
  5 17  1  0  0  0  0
  5 21  1  0  0  0  0
  5 23  1  0  0  0  0
  6  7  1  0  0  0  0
  6  8  1  0  0  0  0
  6 11  1  0  0  0  0
  6 28  1  0  0  0  0
  7  9  1  0  0  0  0
  7 15  1  0  0  0  0
  7 29  1  0  0  0  0
  8 10  1  0  0  0  0
  8 13  1  0  0  0  0
  8 30  1  0  0  0  0
  9 12  1  0  0  0  0
  9 31  1  0  0  0  0
 10 32  1  0  0  0  0
 10 33  1  0  0  0  0
 11 16  1  0  0  0  0
 11 34  1  0  0  0  0
 11 35  1  0  0  0  0
 12 14  1  0  0  0  0
 12 36  1  0  0  0  0
 12 37  1  0  0  0  0
 13 20  1  0  0  0  0
 13 38  1  0  0  0  0
 13 39  1  0  0  0  0
 14 17  2  0  0  0  0
 14 19  1  0  0  0  0
 16 17  1  0  0  0  0
 18 40  1  0  0  0  0
 18 41  1  0  0  0  0
 18 42  1  0  0  0  0
 19 21  1  0  0  0  0
 19 22  2  0  0  0  0
 20 43  1  0  0  0  0
 20 44  1  0  0  0  0
 20 45  1  0  0  0  0
 21 24  2  0  0  0  0
 22 25  1  0  0  0  0
 22 46  1  0  0  0  0
 23 47  1  0  0  0  0
 23 48  1  0  0  0  0
 23 49  1  0  0  0  0
 24 27  1  0  0  0  0
 24 50  1  0  0  0  0
 25 27  2  0  0  0  0
 25 51  1  0  0  0  0
 26 52  1  0  0  0  0
 26 53  1  0  0  0  0
 26 54  1  0  0  0  0
 27 55  1  0  0  0  0
M  END
> <PUBCHEM_COMPOUND_CID>
137638388

> <PUBCHEM_CONFORMER_RMSD>
0.8

> <PUBCHEM_CONFORMER_DIVERSEORDER>
1
4
2
3

> <PUBCHEM_MMFF94_PARTIAL_CHARGES>
26
1 -0.43
10 0.27
11 0.06
12 0.18
14 -0.18
15 0.66
16 0.59
17 -0.24
18 0.27
2 -0.57
21 -0.15
22 -0.15
23 0.26
24 -0.15
25 -0.15
26 0.28
27 -0.15
3 -0.57
4 -0.81
46 0.15
5 0.05
50 0.15
51 0.15
55 0.15
7 0.06
9 0.27

> <PUBCHEM_EFFECTIVE_ROTOR_COUNT>
4.2

> <PUBCHEM_PHARMACOPHORE_FEATURES>
8
1 2 acceptor
1 20 hydrophobe
1 3 acceptor
1 4 cation
1 5 cation
5 5 14 17 19 21 rings
6 19 21 22 24 25 27 rings
6 4 6 7 8 9 10 rings

> <PUBCHEM_HEAVY_ATOM_COUNT>
27

> <PUBCHEM_ATOM_DEF_STEREO_COUNT>
4

> <PUBCHEM_ATOM_UDEF_STEREO_COUNT>
0

> <PUBCHEM_BOND_DEF_STEREO_COUNT>
0

> <PUBCHEM_BOND_UDEF_STEREO_COUNT>
0

> <PUBCHEM_ISOTOPIC_ATOM_COUNT>
0

> <PUBCHEM_COMPONENT_COUNT>
1

> <PUBCHEM_CACTVS_TAUTO_COUNT>
-1

> <PUBCHEM_CONFORMER_ID>
083431F400000001

> <PUBCHEM_MMFF94_ENERGY>
99.9301

> <PUBCHEM_FEATURE_SELFOVERLAP>
40.685

> <PUBCHEM_SHAPE_FINGERPRINT>
10764073 3 17897751802697907105
107951 10 17459748121241803047
11578080 2 17916008234919587952
12011746 2 17603585219128800305
12553582 1 18409165532948843210
12592029 89 18270966726615848439
12596599 1 17988096589850405574
12715332 25 18339918229863606700
12788726 201 18267304218887306368
13140716 1 18335698360265956280
13224815 77 18041837436855794328
14790565 3 18197780998708374480
15196674 1 18186525401411776168
16945 1 17977380865063105497
17349148 13 17275106132424207988
18186145 218 16877657989737194776
18603816 31 16916492641999931046
19141452 34 18413384324340559838
19930381 70 17836644128364367751
20602899 9 17918270948672218599
20681651 13 17986960845509352888
20775438 99 17333030728821976367
21033648 29 18058148554109372336
21033650 10 16629705949794494032
221490 88 17968108551026800592
23557571 272 17986934423171001130
23559900 14 18259987081090168840
23728640 28 18413669102089254583
335352 9 18114747027471597004
34934 24 18408319982594621160
5104073 3 18040157344471323176
6287921 2 16952272025429567124
633830 44 17749389308382864656
70251023 43 17976814612543876491

> <PUBCHEM_SHAPE_MULTIPOLES>
528.08
9.4
3.44
1.61
6.31
1.33
-0.64
-1.15
-0.42
-1.53
1.5
-1.54
0.91
-1.23

> <PUBCHEM_SHAPE_SELFOVERLAP>
1138.463

> <PUBCHEM_SHAPE_VOLUME>
288.6

> <PUBCHEM_COORDINATE_TYPE>
2
5
10

$$$$