5319259
  -OEChem-03242010103D

 57 59  0     1  0  0  0  0  0999 V2000
   -0.1360   -0.5703   -2.8191 O   0  0  0  0  0  0  0  0  0  0  0  0
   -0.2968   -2.3836   -0.5013 O   0  0  0  0  0  0  0  0  0  0  0  0
   -1.3258    0.9428    0.4361 O   0  0  0  0  0  0  0  0  0  0  0  0
    1.5663    1.6971    1.1334 O   0  0  0  0  0  0  0  0  0  0  0  0
   -0.7528   -2.5839    1.7467 O   0  0  0  0  0  0  0  0  0  0  0  0
   -2.3383   -0.3548    2.0462 O   0  0  0  0  0  0  0  0  0  0  0  0
    2.4105    2.7979    2.9558 O   0  0  0  0  0  0  0  0  0  0  0  0
   -1.3591   -0.9138   -2.1414 C   0  0  0  0  0  0  0  0  0  0  0  0
   -1.1181   -1.2198   -0.6452 C   0  0  2  0  0  0  0  0  0  0  0  0
   -0.4002   -0.0776    0.0765 C   0  0  1  0  0  0  0  0  0  0  0  0
    0.6695    0.5316   -0.7888 C   0  0  0  0  0  0  0  0  0  0  0  0
    0.7371    0.2513   -2.1578 C   0  0  0  0  0  0  0  0  0  0  0  0
   -2.3748    0.2219   -2.3582 C   0  0  0  0  0  0  0  0  0  0  0  0
   -1.8909   -2.1611   -2.8701 C   0  0  0  0  0  0  0  0  0  0  0  0
    1.6343    1.3984   -0.2487 C   0  0  0  0  0  0  0  0  0  0  0  0
    1.7558    0.8014   -2.9455 C   0  0  0  0  0  0  0  0  0  0  0  0
    2.6467    1.9622   -1.0243 C   0  0  0  0  0  0  0  0  0  0  0  0
    2.7058    1.6553   -2.3828 C   0  0  0  0  0  0  0  0  0  0  0  0
   -0.0265   -2.7599    0.7787 C   0  0  0  0  0  0  0  0  0  0  0  0
   -2.3671    0.5528    1.2274 C   0  0  0  0  0  0  0  0  0  0  0  0
    3.6120    2.8487   -0.3957 C   0  0  0  0  0  0  0  0  0  0  0  0
    2.4760    2.5423    1.7587 C   0  0  0  0  0  0  0  0  0  0  0  0
    3.5314    3.1201    0.9088 C   0  0  0  0  0  0  0  0  0  0  0  0
    1.3111   -3.4245    0.8294 C   0  0  0  0  0  0  0  0  0  0  0  0
   -3.5635    1.4013    0.9406 C   0  0  0  0  0  0  0  0  0  0  0  0
    1.7651   -4.2027   -0.3700 C   0  0  0  0  0  0  0  0  0  0  0  0
    1.9913   -3.2881    1.9826 C   0  0  0  0  0  0  0  0  0  0  0  0
   -3.3428    2.8252    0.5235 C   0  0  0  0  0  0  0  0  0  0  0  0
   -4.7591    0.8087    1.1150 C   0  0  0  0  0  0  0  0  0  0  0  0
    3.3487   -3.8291    2.3023 C   0  0  0  0  0  0  0  0  0  0  0  0
   -6.1096    1.4105    0.8872 C   0  0  0  0  0  0  0  0  0  0  0  0
   -2.0905   -1.4641   -0.2028 H   0  0  0  0  0  0  0  0  0  0  0  0
    0.0946   -0.3973    0.9988 H   0  0  0  0  0  0  0  0  0  0  0  0
   -3.3263    0.0095   -1.8611 H   0  0  0  0  0  0  0  0  0  0  0  0
   -2.5736    0.3601   -3.4279 H   0  0  0  0  0  0  0  0  0  0  0  0
   -1.9981    1.1872   -2.0091 H   0  0  0  0  0  0  0  0  0  0  0  0
   -2.0687   -1.9493   -3.9311 H   0  0  0  0  0  0  0  0  0  0  0  0
   -2.8266   -2.5171   -2.4266 H   0  0  0  0  0  0  0  0  0  0  0  0
   -1.1601   -2.9773   -2.8458 H   0  0  0  0  0  0  0  0  0  0  0  0
    1.8112    0.5717   -4.0070 H   0  0  0  0  0  0  0  0  0  0  0  0
    3.4835    2.0736   -3.0169 H   0  0  0  0  0  0  0  0  0  0  0  0
    4.3976    3.2851   -1.0028 H   0  0  0  0  0  0  0  0  0  0  0  0
    4.2494    3.7807    1.3820 H   0  0  0  0  0  0  0  0  0  0  0  0
    2.5488   -4.9270   -0.1342 H   0  0  0  0  0  0  0  0  0  0  0  0
    0.9315   -4.7752   -0.7917 H   0  0  0  0  0  0  0  0  0  0  0  0
    2.1434   -3.5249   -1.1418 H   0  0  0  0  0  0  0  0  0  0  0  0
    1.5514   -2.7096    2.7937 H   0  0  0  0  0  0  0  0  0  0  0  0
   -3.1027    2.8798   -0.5425 H   0  0  0  0  0  0  0  0  0  0  0  0
   -4.2132    3.4589    0.7126 H   0  0  0  0  0  0  0  0  0  0  0  0
   -2.5129    3.2653    1.0874 H   0  0  0  0  0  0  0  0  0  0  0  0
   -4.7949   -0.2311    1.4368 H   0  0  0  0  0  0  0  0  0  0  0  0
    3.9847   -3.0198    2.6756 H   0  0  0  0  0  0  0  0  0  0  0  0
    3.8563   -4.2704    1.4421 H   0  0  0  0  0  0  0  0  0  0  0  0
    3.2707   -4.5891    3.0856 H   0  0  0  0  0  0  0  0  0  0  0  0
   -6.0733    2.3963    0.4185 H   0  0  0  0  0  0  0  0  0  0  0  0
   -6.6421    1.4990    1.8389 H   0  0  0  0  0  0  0  0  0  0  0  0
   -6.6932    0.7579    0.2297 H   0  0  0  0  0  0  0  0  0  0  0  0
  1  8  1  0  0  0  0
  1 12  1  0  0  0  0
  2  9  1  0  0  0  0
  2 19  1  0  0  0  0
  3 10  1  0  0  0  0
  3 20  1  0  0  0  0
  4 15  1  0  0  0  0
  4 22  1  0  0  0  0
  5 19  2  0  0  0  0
  6 20  2  0  0  0  0
  7 22  2  0  0  0  0
  8  9  1  0  0  0  0
  8 13  1  0  0  0  0
  8 14  1  0  0  0  0
  9 10  1  0  0  0  0
  9 32  1  0  0  0  0
 10 11  1  0  0  0  0
 10 33  1  0  0  0  0
 11 12  2  0  0  0  0
 11 15  1  0  0  0  0
 12 16  1  0  0  0  0
 13 34  1  0  0  0  0
 13 35  1  0  0  0  0
 13 36  1  0  0  0  0
 14 37  1  0  0  0  0
 14 38  1  0  0  0  0
 14 39  1  0  0  0  0
 15 17  2  0  0  0  0
 16 18  2  0  0  0  0
 16 40  1  0  0  0  0
 17 18  1  0  0  0  0
 17 21  1  0  0  0  0
 18 41  1  0  0  0  0
 19 24  1  0  0  0  0
 20 25  1  0  0  0  0
 21 23  2  0  0  0  0
 21 42  1  0  0  0  0
 22 23  1  0  0  0  0
 23 43  1  0  0  0  0
 24 26  1  0  0  0  0
 24 27  2  0  0  0  0
 25 28  1  0  0  0  0
 25 29  2  0  0  0  0
 26 44  1  0  0  0  0
 26 45  1  0  0  0  0
 26 46  1  0  0  0  0
 27 30  1  0  0  0  0
 27 47  1  0  0  0  0
 28 48  1  0  0  0  0
 28 49  1  0  0  0  0
 28 50  1  0  0  0  0
 29 31  1  0  0  0  0
 29 51  1  0  0  0  0
 30 52  1  0  0  0  0
 30 53  1  0  0  0  0
 30 54  1  0  0  0  0
 31 55  1  0  0  0  0
 31 56  1  0  0  0  0
 31 57  1  0  0  0  0
M  END
> <PUBCHEM_COMPOUND_CID>
5319259

> <PUBCHEM_CONFORMER_RMSD>
0.8

> <PUBCHEM_CONFORMER_DIVERSEORDER>
5
74
89
48
118
123
97
34
82
20
50
28
120
68
107
59
90
53
11
60
109
101
42
26
96
91
65
83
71
113
84
51
121
55
40
18
32
93
64
79
47
119
4
116
54
81
62
102
87
7
46
41
3
112
92
103
95
29
24
77
80
66
67
76
49
100
35
57
39
56
52
105
85
2
99
73
108
36
33
58
98
86
1
16
88
13
19
63
78
70
23
115
75
10
106
12
37
111
114
117
43
30
72
15
6
61
122
94
45
104
69
31
14
17
38
110
27
22
9
25
44
8
21

> <PUBCHEM_MMFF94_PARTIAL_CHARGES>
35
1 -0.36
10 0.42
11 -0.14
12 0.08
15 0.08
16 -0.15
17 0.03
18 -0.15
19 0.71
2 -0.43
20 0.71
21 -0.18
22 0.71
23 -0.14
24 -0.12
25 -0.12
26 0.14
27 -0.29
28 0.14
29 -0.29
3 -0.43
30 0.14
31 0.14
4 -0.23
40 0.15
41 0.15
42 0.15
43 0.15
47 0.15
5 -0.57
51 0.15
6 -0.57
7 -0.57
8 0.28
9 0.28

> <PUBCHEM_EFFECTIVE_ROTOR_COUNT>
6.8

> <PUBCHEM_PHARMACOPHORE_FEATURES>
12
1 1 acceptor
1 26 hydrophobe
1 28 hydrophobe
1 30 hydrophobe
1 31 hydrophobe
1 5 acceptor
1 6 acceptor
1 7 acceptor
3 8 13 14 hydrophobe
6 1 8 9 10 11 12 rings
6 11 12 15 16 17 18 rings
6 4 15 17 21 22 23 rings

> <PUBCHEM_HEAVY_ATOM_COUNT>
31

> <PUBCHEM_ATOM_DEF_STEREO_COUNT>
0

> <PUBCHEM_ATOM_UDEF_STEREO_COUNT>
2

> <PUBCHEM_BOND_DEF_STEREO_COUNT>
2

> <PUBCHEM_BOND_UDEF_STEREO_COUNT>
0

> <PUBCHEM_ISOTOPIC_ATOM_COUNT>
0

> <PUBCHEM_COMPONENT_COUNT>
1

> <PUBCHEM_CACTVS_TAUTO_COUNT>
1

> <PUBCHEM_CONFORMER_ID>
00512A5B00000005

> <PUBCHEM_MMFF94_ENERGY>
99.3883

> <PUBCHEM_FEATURE_SELFOVERLAP>
60.958

> <PUBCHEM_SHAPE_FINGERPRINT>
10258939 38 16912843624108822607
107951 10 18196667387039991096
10930396 42 17487059956444567574
11582403 64 18201729478391677079
11725454 13 18201453505363355813
12156800 1 16198710675786427238
12788726 201 17180270192306685579
131258 43 17549294461158899830
133893 2 18116129147857980342
14028597 1 17982426472779247871
14468879 13 17415565581819334432
14955137 171 17983863280767725599
15219462 58 17766552826689698600
17980427 23 16985148329348522829
18681886 176 17415857807357163125
20600515 1 17180822748634351469
23419403 2 17678446468590171647
23559900 14 17678191412437385769
238 59 17059520472662106029
27425 322 18196089073825716881
3380486 145 17546687527694720366
35225 105 17902808683558222458
394222 165 18201732712697256057
81228 2 17624150685998014193
9981440 41 17272566398636397900

> <PUBCHEM_SHAPE_MULTIPOLES>
596.88
7.02
5.2
3.25
9.72
3.65
-1.48
-4.54
3.92
-6.85
2.8
-0.86
0.18
-1.96

> <PUBCHEM_SHAPE_SELFOVERLAP>
1275.542

> <PUBCHEM_SHAPE_VOLUME>
328.3

> <PUBCHEM_COORDINATE_TYPE>
2
5
10

$$$$