173
 OpenBabel03292022023D

 53 56  0  0  0  0  0  0  0  0999 V2000
    3.3194    0.8149   -0.2879 C   0  0  0  0  0  0  0  0  0  0  0  0
    2.6918   -0.4588   -0.3797 O   0  0  0  0  0  0  0  0  0  0  0  0
    3.2495   -1.4861    0.3334 C   0  0  0  0  0  0  0  0  0  0  0  0
    4.0838   -1.2677    1.4347 C   0  0  0  0  0  0  0  0  0  0  0  0
    4.6387   -2.3420    2.1390 C   0  0  0  0  0  0  0  0  0  0  0  0
    4.3755   -3.6749    1.7807 C   0  0  0  0  0  0  0  0  0  0  0  0
    4.9429   -4.7954    2.5533 C   0  0  0  0  0  0  0  0  0  0  0  0
    5.8183   -4.4818    3.5126 N   0  0  0  0  0  0  0  0  0  0  0  0
    6.3166   -5.4744    4.2693 C   0  0  0  0  0  0  0  0  0  0  0  0
    7.4355   -5.1391    5.0869 N   0  0  0  0  0  0  0  0  0  0  0  0
    8.4707   -4.3210    4.5443 C   0  0  0  0  0  0  0  0  0  0  0  0
    9.1903   -3.4623    5.3665 C   0  0  0  0  0  0  0  0  0  0  0  0
   10.2298   -2.6874    4.8334 C   0  0  0  0  0  0  0  0  0  0  0  0
   10.5905   -2.7934    3.4791 C   0  0  0  0  0  0  0  0  0  0  0  0
   11.5655   -2.0376    2.8935 O   0  0  0  0  0  0  0  0  0  0  0  0
   12.5375   -1.4450    3.7458 C   0  0  0  0  0  0  0  0  0  0  0  0
    9.9117   -3.6916    2.6530 C   0  0  0  0  0  0  0  0  0  0  0  0
   10.2149   -3.8860    1.1910 C   0  0  0  0  0  0  0  0  0  0  0  0
   11.3165   -3.2496    0.7087 F   0  0  0  0  0  0  0  0  0  0  0  0
   10.4088   -5.2065    0.8916 F   0  0  0  0  0  0  0  0  0  0  0  0
    9.1802   -3.4879    0.3949 F   0  0  0  0  0  0  0  0  0  0  0  0
    8.8693   -4.4581    3.2070 C   0  0  0  0  0  0  0  0  0  0  0  0
    5.8494   -6.7912    4.1692 C   0  0  0  0  0  0  0  0  0  0  0  0
    6.1949   -7.8654    5.0310 C   0  0  0  0  0  0  0  0  0  0  0  0
    5.7701   -9.1617    4.7549 C   0  0  0  0  0  0  0  0  0  0  0  0
    5.0197   -9.4013    3.6125 C   0  0  0  0  0  0  0  0  0  0  0  0
    4.6425   -8.3341    2.7919 C   0  0  0  0  0  0  0  0  0  0  0  0
    5.0108   -7.0240    3.0707 C   0  0  0  0  0  0  0  0  0  0  0  0
    4.5657   -6.0498    2.2681 N   0  0  0  0  0  0  0  0  0  0  0  0
    3.5352   -3.8773    0.6760 C   0  0  0  0  0  0  0  0  0  0  0  0
    2.9598   -2.8092   -0.0387 C   0  0  0  0  0  0  0  0  0  0  0  0
    2.1793   -3.2453   -1.0793 O   0  0  0  0  0  0  0  0  0  0  0  0
    1.2525   -2.3351   -1.6511 C   0  0  0  0  0  0  0  0  0  0  0  0
    2.8820    1.4580   -1.0577 H   0  0  0  0  0  0  0  0  0  0  0  0
    4.3951    0.7468   -0.4828 H   0  0  0  0  0  0  0  0  0  0  0  0
    3.1210    1.2811    0.6826 H   0  0  0  0  0  0  0  0  0  0  0  0
    4.3197   -0.2685    1.7857 H   0  0  0  0  0  0  0  0  0  0  0  0
    5.2829   -2.1232    2.9907 H   0  0  0  0  0  0  0  0  0  0  0  0
    7.8865   -5.9895    5.4106 H   0  0  0  0  0  0  0  0  0  0  0  0
    8.9163   -3.3506    6.4121 H   0  0  0  0  0  0  0  0  0  0  0  0
   10.7243   -1.9867    5.5004 H   0  0  0  0  0  0  0  0  0  0  0  0
   13.3203   -1.0199    3.1099 H   0  0  0  0  0  0  0  0  0  0  0  0
   13.0034   -2.1934    4.3954 H   0  0  0  0  0  0  0  0  0  0  0  0
   12.1033   -0.6275    4.3292 H   0  0  0  0  0  0  0  0  0  0  0  0
    8.3496   -5.1593    2.5544 H   0  0  0  0  0  0  0  0  0  0  0  0
    6.7738   -7.6931    5.9346 H   0  0  0  0  0  0  0  0  0  0  0  0
    6.0311   -9.9795    5.4219 H   0  0  0  0  0  0  0  0  0  0  0  0
    4.7115  -10.4131    3.3609 H   0  0  0  0  0  0  0  0  0  0  0  0
    4.0452   -8.5327    1.9041 H   0  0  0  0  0  0  0  0  0  0  0  0
    3.3059   -4.8938    0.3574 H   0  0  0  0  0  0  0  0  0  0  0  0
    0.5916   -2.9094   -2.3079 H   0  0  0  0  0  0  0  0  0  0  0  0
    1.7618   -1.5973   -2.2779 H   0  0  0  0  0  0  0  0  0  0  0  0
    0.6241   -1.8640   -0.8881 H   0  0  0  0  0  0  0  0  0  0  0  0
  1  2  1  0  0  0  0
  1 34  1  0  0  0  0
  1 35  1  0  0  0  0
  1 36  1  0  0  0  0
  2  3  1  0  0  0  0
  3  4  1  0  0  0  0
  3 31  2  0  0  0  0
  4  5  2  0  0  0  0
  4 37  1  0  0  0  0
  5  6  1  0  0  0  0
  5 38  1  0  0  0  0
  6  7  1  0  0  0  0
  6 30  2  0  0  0  0
  7  8  1  0  0  0  0
  7 29  2  0  0  0  0
  8  9  2  0  0  0  0
  9 10  1  0  0  0  0
  9 23  1  0  0  0  0
 10 11  1  0  0  0  0
 10 39  1  0  0  0  0
 11 12  1  0  0  0  0
 11 22  2  0  0  0  0
 12 13  2  0  0  0  0
 12 40  1  0  0  0  0
 13 14  1  0  0  0  0
 13 41  1  0  0  0  0
 14 15  1  0  0  0  0
 14 17  2  0  0  0  0
 15 16  1  0  0  0  0
 16 42  1  0  0  0  0
 16 43  1  0  0  0  0
 16 44  1  0  0  0  0
 17 18  1  0  0  0  0
 17 22  1  0  0  0  0
 18 19  1  0  0  0  0
 18 20  1  0  0  0  0
 18 21  1  0  0  0  0
 22 45  1  0  0  0  0
 23 24  1  0  0  0  0
 23 28  2  0  0  0  0
 24 25  2  0  0  0  0
 24 46  1  0  0  0  0
 25 26  1  0  0  0  0
 25 47  1  0  0  0  0
 26 27  2  0  0  0  0
 26 48  1  0  0  0  0
 27 28  1  0  0  0  0
 27 49  1  0  0  0  0
 28 29  1  0  0  0  0
 30 31  1  0  0  0  0
 30 50  1  0  0  0  0
 31 32  1  0  0  0  0
 32 33  1  0  0  0  0
 33 51  1  0  0  0  0
 33 52  1  0  0  0  0
 33 53  1  0  0  0  0
M  END
>  <Energy>
81.5323

$$$$