132576653
  -OEChem-03242010103D

 69 73  0     1  0  0  0  0  0999 V2000
   -4.5127    3.8797    2.4625 Cl  0  0  0  0  0  0  0  0  0  0  0  0
    4.2306    3.3056   -0.7867 O   0  0  0  0  0  0  0  0  0  0  0  0
    5.9978    1.1648   -0.8931 O   0  0  0  0  0  0  0  0  0  0  0  0
   -1.7362   -2.8676   -2.1845 O   0  0  0  0  0  0  0  0  0  0  0  0
   -2.9077   -0.2236   -2.9565 O   0  0  0  0  0  0  0  0  0  0  0  0
    0.8807   -0.5629    2.5688 N   0  0  2  0  0  0  0  0  0  0  0  0
   -1.4771   -2.2681    2.1412 N   0  0  0  0  0  0  0  0  0  0  0  0
   -2.6148   -1.7150    1.6908 N   0  0  0  0  0  0  0  0  0  0  0  0
   -2.8406   -2.2092    0.4785 N   0  0  0  0  0  0  0  0  0  0  0  0
   -2.2516    0.7495   -0.9245 N   0  0  0  0  0  0  0  0  0  0  0  0
    2.0260   -1.2833    3.1385 C   0  0  0  0  0  0  0  0  0  0  0  0
    1.2679    0.8163    2.2227 C   0  0  0  0  0  0  0  0  0  0  0  0
    3.1130   -1.4587    2.0732 C   0  0  0  0  0  0  0  0  0  0  0  0
    2.5143    0.8918    1.3707 C   0  0  0  0  0  0  0  0  0  0  0  0
    3.4206   -0.1818    1.3353 C   0  0  0  0  0  0  0  0  0  0  0  0
   -0.2448   -0.5564    3.5025 C   0  0  0  0  0  0  0  0  0  0  0  0
   -0.9375   -1.9185    3.5054 C   0  0  0  0  0  0  0  0  0  0  0  0
    2.8049    2.0644    0.6602 C   0  0  0  0  0  0  0  0  0  0  0  0
    4.5841   -0.0816    0.5613 C   0  0  0  0  0  0  0  0  0  0  0  0
    3.9706    2.1582   -0.0997 C   0  0  0  0  0  0  0  0  0  0  0  0
    4.8581    1.0856   -0.1509 C   0  0  0  0  0  0  0  0  0  0  0  0
   -0.9438   -3.1296    1.2325 C   0  0  0  0  0  0  0  0  0  0  0  0
   -1.8264   -3.0771    0.1829 C   0  0  0  0  0  0  0  0  0  0  0  0
   -1.7863   -3.7953   -1.0972 C   0  0  0  0  0  0  0  0  0  0  0  0
    3.7356    3.3874   -2.1219 C   0  0  0  0  0  0  0  0  0  0  0  0
    6.8523    0.0228   -0.8918 C   0  0  0  0  0  0  0  0  0  0  0  0
   -0.6340   -2.0620   -2.2475 C   0  0  0  0  0  0  0  0  0  0  0  0
   -0.7577   -0.6738   -2.1907 C   0  0  0  0  0  0  0  0  0  0  0  0
    0.6273   -2.6453   -2.3676 C   0  0  0  0  0  0  0  0  0  0  0  0
    0.3797    0.1310   -2.2539 C   0  0  0  0  0  0  0  0  0  0  0  0
   -2.0649   -0.0444   -2.0637 C   0  0  0  0  0  0  0  0  0  0  0  0
    1.7650   -1.8405   -2.4309 C   0  0  0  0  0  0  0  0  0  0  0  0
    1.6411   -0.4524   -2.3740 C   0  0  0  0  0  0  0  0  0  0  0  0
   -3.3957    1.4960   -0.5495 C   0  0  0  0  0  0  0  0  0  0  0  0
   -3.3912    2.2339    0.6342 C   0  0  0  0  0  0  0  0  0  0  0  0
   -4.5267    1.4938   -1.3658 C   0  0  0  0  0  0  0  0  0  0  0  0
   -4.5177    2.9695    1.0018 C   0  0  0  0  0  0  0  0  0  0  0  0
   -5.6534    2.2295   -0.9982 C   0  0  0  0  0  0  0  0  0  0  0  0
   -5.6488    2.9674    0.1855 C   0  0  0  0  0  0  0  0  0  0  0  0
    1.7537   -2.2840    3.4887 H   0  0  0  0  0  0  0  0  0  0  0  0
    2.4328   -0.7422    4.0039 H   0  0  0  0  0  0  0  0  0  0  0  0
    1.4418    1.4104    3.1299 H   0  0  0  0  0  0  0  0  0  0  0  0
    0.4430    1.2783    1.6654 H   0  0  0  0  0  0  0  0  0  0  0  0
    2.7869   -2.2060    1.3383 H   0  0  0  0  0  0  0  0  0  0  0  0
    4.0217   -1.8374    2.5561 H   0  0  0  0  0  0  0  0  0  0  0  0
   -0.9838    0.1936    3.1902 H   0  0  0  0  0  0  0  0  0  0  0  0
    0.0703   -0.2876    4.5184 H   0  0  0  0  0  0  0  0  0  0  0  0
   -1.8142   -1.9086    4.1632 H   0  0  0  0  0  0  0  0  0  0  0  0
   -0.2978   -2.7531    3.8053 H   0  0  0  0  0  0  0  0  0  0  0  0
    2.1184    2.9070    0.7006 H   0  0  0  0  0  0  0  0  0  0  0  0
    5.2335   -0.9510    0.5557 H   0  0  0  0  0  0  0  0  0  0  0  0
   -0.0275   -3.6766    1.4030 H   0  0  0  0  0  0  0  0  0  0  0  0
   -0.9595   -4.5120   -1.1511 H   0  0  0  0  0  0  0  0  0  0  0  0
   -2.7085   -4.3751   -1.2151 H   0  0  0  0  0  0  0  0  0  0  0  0
    4.0232    4.3579   -2.5353 H   0  0  0  0  0  0  0  0  0  0  0  0
    2.6435    3.3122   -2.1312 H   0  0  0  0  0  0  0  0  0  0  0  0
    4.1714    2.5988   -2.7434 H   0  0  0  0  0  0  0  0  0  0  0  0
    7.7087    0.2611   -1.5312 H   0  0  0  0  0  0  0  0  0  0  0  0
    6.3600   -0.8502   -1.3338 H   0  0  0  0  0  0  0  0  0  0  0  0
    7.2505   -0.1829    0.1077 H   0  0  0  0  0  0  0  0  0  0  0  0
    0.7446   -3.7234   -2.4311 H   0  0  0  0  0  0  0  0  0  0  0  0
    0.3012    1.2146   -2.2150 H   0  0  0  0  0  0  0  0  0  0  0  0
    2.7471   -2.2940   -2.5277 H   0  0  0  0  0  0  0  0  0  0  0  0
    2.5265    0.1739   -2.4275 H   0  0  0  0  0  0  0  0  0  0  0  0
   -1.4741    0.8058   -0.2694 H   0  0  0  0  0  0  0  0  0  0  0  0
   -2.5084    2.2337    1.2703 H   0  0  0  0  0  0  0  0  0  0  0  0
   -4.6072    0.9486   -2.2952 H   0  0  0  0  0  0  0  0  0  0  0  0
   -6.5349    2.2285   -1.6329 H   0  0  0  0  0  0  0  0  0  0  0  0
   -6.5339    3.5359    0.4593 H   0  0  0  0  0  0  0  0  0  0  0  0
  1 37  1  0  0  0  0
  2 20  1  0  0  0  0
  2 25  1  0  0  0  0
  3 21  1  0  0  0  0
  3 26  1  0  0  0  0
  4 24  1  0  0  0  0
  4 27  1  0  0  0  0
  5 31  2  0  0  0  0
  6 11  1  0  0  0  0
  6 12  1  0  0  0  0
  6 16  1  0  0  0  0
  7  8  1  0  0  0  0
  7 17  1  0  0  0  0
  7 22  1  0  0  0  0
  8  9  2  0  0  0  0
  9 23  1  0  0  0  0
 10 31  1  0  0  0  0
 10 34  1  0  0  0  0
 10 65  1  0  0  0  0
 11 13  1  0  0  0  0
 11 40  1  0  0  0  0
 11 41  1  0  0  0  0
 12 14  1  0  0  0  0
 12 42  1  0  0  0  0
 12 43  1  0  0  0  0
 13 15  1  0  0  0  0
 13 44  1  0  0  0  0
 13 45  1  0  0  0  0
 14 15  1  0  0  0  0
 14 18  2  0  0  0  0
 15 19  2  0  0  0  0
 16 17  1  0  0  0  0
 16 46  1  0  0  0  0
 16 47  1  0  0  0  0
 17 48  1  0  0  0  0
 17 49  1  0  0  0  0
 18 20  1  0  0  0  0
 18 50  1  0  0  0  0
 19 21  1  0  0  0  0
 19 51  1  0  0  0  0
 20 21  2  0  0  0  0
 22 23  2  0  0  0  0
 22 52  1  0  0  0  0
 23 24  1  0  0  0  0
 24 53  1  0  0  0  0
 24 54  1  0  0  0  0
 25 55  1  0  0  0  0
 25 56  1  0  0  0  0
 25 57  1  0  0  0  0
 26 58  1  0  0  0  0
 26 59  1  0  0  0  0
 26 60  1  0  0  0  0
 27 28  1  0  0  0  0
 27 29  2  0  0  0  0
 28 30  2  0  0  0  0
 28 31  1  0  0  0  0
 29 32  1  0  0  0  0
 29 61  1  0  0  0  0
 30 33  1  0  0  0  0
 30 62  1  0  0  0  0
 32 33  2  0  0  0  0
 32 63  1  0  0  0  0
 33 64  1  0  0  0  0
 34 35  2  0  0  0  0
 34 36  1  0  0  0  0
 35 37  1  0  0  0  0
 35 66  1  0  0  0  0
 36 38  2  0  0  0  0
 36 67  1  0  0  0  0
 37 39  2  0  0  0  0
 38 39  1  0  0  0  0
 38 68  1  0  0  0  0
 39 69  1  0  0  0  0
M  END
> <PUBCHEM_COMPOUND_CID>
132576653

> <PUBCHEM_CONFORMER_RMSD>
1.4

> <PUBCHEM_CONFORMER_DIVERSEORDER>
2
198
161
90
68
178
98
120
11
209
218
126
207
152
106
87
60
158
112
41
190
89
32
147
95
204
7
179
33
206
13
103
67
174
153
159
219
57
186
160
205
9
85
151
104
176
225
138
62
201
203
170
217
223
193
129
228
8
105
110
134
135
10
51
1
49
23
215
58
48
192
121
128
82
125
172
6
34
213
43
19
154
148
216
76
171
165
194
21
84
80
164
30
54
139
14
145
166
37
83
221
100
38
130
214
44
75
92
63
86
222
144
72
29
133
173
115
99
200
163
97
143
195
157
20
132
78
189
55
73
79
12
140
169
26
65
109
156
131
117
42
168
27
191
93
226
66
142
77
197
119
17
220
177
40
224
3
15
113
114
46
227
137
22
184
149
18
150
185
16
187
88
199
31
81
56
101
124
45
35
118
94
202
28
24
108
107
212
39
4
116
162
70
64
196
181
5
53
50
182
52
175
141
180
74
122
96
25
61
208
71
111
59
102
146
211
167
91
188
36
127
123
69
47
210
136
183
155

> <PUBCHEM_MMFF94_PARTIAL_CHARGES>
51
1 -0.18
10 -0.55
11 0.27
12 0.41
13 0.14
14 -0.14
15 -0.14
16 0.27
17 0.26
18 -0.15
19 -0.15
2 -0.36
20 0.08
21 0.08
22 -0.3
23 0.05
24 0.46
25 0.28
26 0.28
27 0.08
28 0.09
29 -0.15
3 -0.36
30 -0.15
31 0.54
32 -0.15
33 -0.15
34 0.12
35 -0.15
36 -0.15
37 0.18
38 -0.15
39 -0.15
4 -0.36
5 -0.57
50 0.15
51 0.15
52 0.15
6 -0.81
61 0.15
62 0.15
63 0.15
64 0.15
65 0.37
66 0.15
67 0.15
68 0.15
69 0.15
7 0.31
8 -0.42
9 -0.23

> <PUBCHEM_EFFECTIVE_ROTOR_COUNT>
11.8

> <PUBCHEM_PHARMACOPHORE_FEATURES>
11
1 10 donor
1 2 acceptor
1 3 acceptor
1 4 acceptor
1 5 acceptor
1 6 cation
5 7 8 9 22 23 rings
6 14 15 18 19 20 21 rings
6 27 28 29 30 32 33 rings
6 34 35 36 37 38 39 rings
6 6 11 12 13 14 15 rings

> <PUBCHEM_HEAVY_ATOM_COUNT>
39

> <PUBCHEM_ATOM_DEF_STEREO_COUNT>
0

> <PUBCHEM_ATOM_UDEF_STEREO_COUNT>
0

> <PUBCHEM_BOND_DEF_STEREO_COUNT>
0

> <PUBCHEM_BOND_UDEF_STEREO_COUNT>
0

> <PUBCHEM_ISOTOPIC_ATOM_COUNT>
0

> <PUBCHEM_COMPONENT_COUNT>
1

> <PUBCHEM_CACTVS_TAUTO_COUNT>
15

> <PUBCHEM_CONFORMER_ID>
07E6F58D00000002

> <PUBCHEM_MMFF94_ENERGY>
124.1754

> <PUBCHEM_FEATURE_SELFOVERLAP>
55.851

> <PUBCHEM_SHAPE_FINGERPRINT>
11112662 9 18336540504605299241
11578080 2 18267605549149568982
11607047 403 18334586716041923747
1200032 147 17272865204085989953
12156800 1 17389141985436946387
12788726 201 18123170562583576055
13636023 20 13972807578108869749
14020679 6 18113342998630999926
14279260 333 18260543421404770618
14395042 70 17909553857383987585
144659 39 18335153002340466553
14705955 166 18337397157223290811
14840074 17 15140677012003959998
15119646 57 18188494691472940100
15351334 14 17981353354322053604
16067690 210 18410569600001268509
16991981 162 18267295607503491201
17809404 112 15481236496828319306
20764821 26 17629510538673917243
21458453 9 16226059877025324753
22121540 332 16806447985941278804
35225 105 18190717826447934743
50150288 127 18192448573867457369
5776283 40 17417513817866626232

> <PUBCHEM_SHAPE_MULTIPOLES>
756.09
11.41
4.76
4.02
2.75
0.22
-1.96
-13.63
2.44
-3.81
0.49
0.12
1.75
-1.74

> <PUBCHEM_SHAPE_SELFOVERLAP>
1625.764

> <PUBCHEM_SHAPE_VOLUME>
417.2

> <PUBCHEM_COORDINATE_TYPE>
2
5
10

$$$$