132576655
  -OEChem-03242010103D

 69 73  0     1  0  0  0  0  0999 V2000
    3.1252    4.4232   -2.4905 Cl  0  0  0  0  0  0  0  0  0  0  0  0
    4.0296   -0.8795    3.1932 O   0  0  0  0  0  0  0  0  0  0  0  0
    5.4844    0.1684    1.0714 O   0  0  0  0  0  0  0  0  0  0  0  0
   -3.8761    1.3869    0.0329 O   0  0  0  0  0  0  0  0  0  0  0  0
   -0.3803    0.1609    1.5536 O   0  0  0  0  0  0  0  0  0  0  0  0
    0.2611   -2.7404   -1.2544 N   0  0  2  0  0  0  0  0  0  0  0  0
   -2.3170   -1.8702   -2.3707 N   0  0  0  0  0  0  0  0  0  0  0  0
   -1.8141   -0.7603   -2.9352 N   0  0  0  0  0  0  0  0  0  0  0  0
   -2.5464    0.2640   -2.5118 N   0  0  0  0  0  0  0  0  0  0  0  0
   -1.3956    1.9674    0.4527 N   0  0  0  0  0  0  0  0  0  0  0  0
    1.3101   -2.9046   -2.2683 C   0  0  0  0  0  0  0  0  0  0  0  0
    0.8251   -2.9200    0.0951 C   0  0  0  0  0  0  0  0  0  0  0  0
    2.3378   -1.7755   -2.1418 C   0  0  0  0  0  0  0  0  0  0  0  0
    2.0500   -2.0716    0.3496 C   0  0  0  0  0  0  0  0  0  0  0  0
    2.7998   -1.5610   -0.7239 C   0  0  0  0  0  0  0  0  0  0  0  0
   -0.8309   -3.6867   -1.4797 C   0  0  0  0  0  0  0  0  0  0  0  0
   -1.7032   -3.2202   -2.6446 C   0  0  0  0  0  0  0  0  0  0  0  0
    2.4816   -1.8438    1.6633 C   0  0  0  0  0  0  0  0  0  0  0  0
    3.9478   -0.7999   -0.4676 C   0  0  0  0  0  0  0  0  0  0  0  0
    3.6312   -1.0930    1.9081 C   0  0  0  0  0  0  0  0  0  0  0  0
    4.3622   -0.5698    0.8439 C   0  0  0  0  0  0  0  0  0  0  0  0
   -3.3826   -1.5885   -1.5724 C   0  0  0  0  0  0  0  0  0  0  0  0
   -3.5113   -0.2261   -1.6764 C   0  0  0  0  0  0  0  0  0  0  0  0
   -4.4896    0.6629   -1.0370 C   0  0  0  0  0  0  0  0  0  0  0  0
    3.5195    0.2821    3.8451 C   0  0  0  0  0  0  0  0  0  0  0  0
    6.1747    0.6672   -0.0728 C   0  0  0  0  0  0  0  0  0  0  0  0
   -3.8612    0.7731    1.2540 C   0  0  0  0  0  0  0  0  0  0  0  0
   -2.6569    0.4917    1.8990 C   0  0  0  0  0  0  0  0  0  0  0  0
   -5.0717    0.4294    1.8559 C   0  0  0  0  0  0  0  0  0  0  0  0
   -2.6631   -0.1331    3.1460 C   0  0  0  0  0  0  0  0  0  0  0  0
   -1.3822    0.8433    1.2889 C   0  0  0  0  0  0  0  0  0  0  0  0
   -5.0780   -0.1953    3.1030 C   0  0  0  0  0  0  0  0  0  0  0  0
   -3.8736   -0.4766    3.7481 C   0  0  0  0  0  0  0  0  0  0  0  0
   -0.3150    2.5547   -0.2502 C   0  0  0  0  0  0  0  0  0  0  0  0
    0.9629    2.0040   -0.1514 C   0  0  0  0  0  0  0  0  0  0  0  0
   -0.5288    3.6832   -1.0416 C   0  0  0  0  0  0  0  0  0  0  0  0
    2.0268    2.5820   -0.8439 C   0  0  0  0  0  0  0  0  0  0  0  0
    0.5350    4.2611   -1.7341 C   0  0  0  0  0  0  0  0  0  0  0  0
    1.8128    3.7106   -1.6353 C   0  0  0  0  0  0  0  0  0  0  0  0
    0.9112   -2.8648   -3.2869 H   0  0  0  0  0  0  0  0  0  0  0  0
    1.8070   -3.8784   -2.1580 H   0  0  0  0  0  0  0  0  0  0  0  0
    1.1010   -3.9698    0.2636 H   0  0  0  0  0  0  0  0  0  0  0  0
    0.0584   -2.6481    0.8314 H   0  0  0  0  0  0  0  0  0  0  0  0
    1.8958   -0.8371   -2.5009 H   0  0  0  0  0  0  0  0  0  0  0  0
    3.1973   -2.0079   -2.7819 H   0  0  0  0  0  0  0  0  0  0  0  0
   -1.4672   -3.7415   -0.5865 H   0  0  0  0  0  0  0  0  0  0  0  0
   -0.4585   -4.7017   -1.6661 H   0  0  0  0  0  0  0  0  0  0  0  0
   -2.5570   -3.8939   -2.7808 H   0  0  0  0  0  0  0  0  0  0  0  0
   -1.1816   -3.1358   -3.6022 H   0  0  0  0  0  0  0  0  0  0  0  0
    1.9178   -2.2543    2.4980 H   0  0  0  0  0  0  0  0  0  0  0  0
    4.4717   -0.4137   -1.3359 H   0  0  0  0  0  0  0  0  0  0  0  0
   -3.9275   -2.3446   -1.0253 H   0  0  0  0  0  0  0  0  0  0  0  0
   -4.8314    1.4068   -1.7657 H   0  0  0  0  0  0  0  0  0  0  0  0
   -5.3830    0.1133   -0.7202 H   0  0  0  0  0  0  0  0  0  0  0  0
    3.9297    0.3149    4.8580 H   0  0  0  0  0  0  0  0  0  0  0  0
    2.4276    0.2366    3.9103 H   0  0  0  0  0  0  0  0  0  0  0  0
    3.8261    1.1884    3.3132 H   0  0  0  0  0  0  0  0  0  0  0  0
    7.0409    1.2281    0.2936 H   0  0  0  0  0  0  0  0  0  0  0  0
    5.5586    1.3720   -0.6413 H   0  0  0  0  0  0  0  0  0  0  0  0
    6.5637   -0.1452   -0.6960 H   0  0  0  0  0  0  0  0  0  0  0  0
   -6.0211    0.6601    1.3806 H   0  0  0  0  0  0  0  0  0  0  0  0
   -1.7373   -0.3567    3.6698 H   0  0  0  0  0  0  0  0  0  0  0  0
   -6.0206   -0.4579    3.5744 H   0  0  0  0  0  0  0  0  0  0  0  0
   -3.8788   -0.9608    4.7202 H   0  0  0  0  0  0  0  0  0  0  0  0
   -2.2776    2.4601    0.3352 H   0  0  0  0  0  0  0  0  0  0  0  0
    1.2066    1.1363    0.4438 H   0  0  0  0  0  0  0  0  0  0  0  0
   -1.5198    4.1214   -1.1280 H   0  0  0  0  0  0  0  0  0  0  0  0
    3.0187    2.1476   -0.7565 H   0  0  0  0  0  0  0  0  0  0  0  0
    0.3535    5.1400   -2.3474 H   0  0  0  0  0  0  0  0  0  0  0  0
  1 39  1  0  0  0  0
  2 20  1  0  0  0  0
  2 25  1  0  0  0  0
  3 21  1  0  0  0  0
  3 26  1  0  0  0  0
  4 24  1  0  0  0  0
  4 27  1  0  0  0  0
  5 31  2  0  0  0  0
  6 11  1  0  0  0  0
  6 12  1  0  0  0  0
  6 16  1  0  0  0  0
  7  8  1  0  0  0  0
  7 17  1  0  0  0  0
  7 22  1  0  0  0  0
  8  9  2  0  0  0  0
  9 23  1  0  0  0  0
 10 31  1  0  0  0  0
 10 34  1  0  0  0  0
 10 65  1  0  0  0  0
 11 13  1  0  0  0  0
 11 40  1  0  0  0  0
 11 41  1  0  0  0  0
 12 14  1  0  0  0  0
 12 42  1  0  0  0  0
 12 43  1  0  0  0  0
 13 15  1  0  0  0  0
 13 44  1  0  0  0  0
 13 45  1  0  0  0  0
 14 15  1  0  0  0  0
 14 18  2  0  0  0  0
 15 19  2  0  0  0  0
 16 17  1  0  0  0  0
 16 46  1  0  0  0  0
 16 47  1  0  0  0  0
 17 48  1  0  0  0  0
 17 49  1  0  0  0  0
 18 20  1  0  0  0  0
 18 50  1  0  0  0  0
 19 21  1  0  0  0  0
 19 51  1  0  0  0  0
 20 21  2  0  0  0  0
 22 23  2  0  0  0  0
 22 52  1  0  0  0  0
 23 24  1  0  0  0  0
 24 53  1  0  0  0  0
 24 54  1  0  0  0  0
 25 55  1  0  0  0  0
 25 56  1  0  0  0  0
 25 57  1  0  0  0  0
 26 58  1  0  0  0  0
 26 59  1  0  0  0  0
 26 60  1  0  0  0  0
 27 28  1  0  0  0  0
 27 29  2  0  0  0  0
 28 30  2  0  0  0  0
 28 31  1  0  0  0  0
 29 32  1  0  0  0  0
 29 61  1  0  0  0  0
 30 33  1  0  0  0  0
 30 62  1  0  0  0  0
 32 33  2  0  0  0  0
 32 63  1  0  0  0  0
 33 64  1  0  0  0  0
 34 35  2  0  0  0  0
 34 36  1  0  0  0  0
 35 37  1  0  0  0  0
 35 66  1  0  0  0  0
 36 38  2  0  0  0  0
 36 67  1  0  0  0  0
 37 39  2  0  0  0  0
 37 68  1  0  0  0  0
 38 39  1  0  0  0  0
 38 69  1  0  0  0  0
M  END
> <PUBCHEM_COMPOUND_CID>
132576655

> <PUBCHEM_CONFORMER_RMSD>
1.4

> <PUBCHEM_CONFORMER_DIVERSEORDER>
6
138
169
38
53
20
133
39
174
97
60
167
13
29
173
119
15
135
57
44
78
134
117
16
37
109
178
108
164
163
140
71
33
156
183
155
11
131
62
82
177
125
8
150
80
146
92
176
103
161
77
26
143
5
148
175
1
96
120
147
70
31
36
81
83
118
47
149
28
123
159
105
124
4
90
182
127
113
22
112
122
50
2
21
162
32
68
184
45
61
24
74
51
42
171
49
88
7
30
86
66
151
14
139
158
106
91
79
129
144
35
126
64
69
153
102
137
56
98
101
100
95
142
19
180
128
132
10
9
52
89
130
76
59
99
170
181
46
114
65
48
25
23
40
93
154
136
166
85
168
3
17
72
75
110
107
84
27
116
179
141
157
121
67
58
43
145
54
165
94
152
34
55
115
111
104
172
87
160
41
73
18
63
12

> <PUBCHEM_MMFF94_PARTIAL_CHARGES>
51
1 -0.18
10 -0.55
11 0.27
12 0.41
13 0.14
14 -0.14
15 -0.14
16 0.27
17 0.26
18 -0.15
19 -0.15
2 -0.36
20 0.08
21 0.08
22 -0.3
23 0.05
24 0.46
25 0.28
26 0.28
27 0.08
28 0.09
29 -0.15
3 -0.36
30 -0.15
31 0.54
32 -0.15
33 -0.15
34 0.12
35 -0.15
36 -0.15
37 -0.15
38 -0.15
39 0.18
4 -0.36
5 -0.57
50 0.15
51 0.15
52 0.15
6 -0.81
61 0.15
62 0.15
63 0.15
64 0.15
65 0.37
66 0.15
67 0.15
68 0.15
69 0.15
7 0.31
8 -0.42
9 -0.23

> <PUBCHEM_EFFECTIVE_ROTOR_COUNT>
11.8

> <PUBCHEM_PHARMACOPHORE_FEATURES>
11
1 10 donor
1 2 acceptor
1 3 acceptor
1 4 acceptor
1 5 acceptor
1 6 cation
5 7 8 9 22 23 rings
6 14 15 18 19 20 21 rings
6 27 28 29 30 32 33 rings
6 34 35 36 37 38 39 rings
6 6 11 12 13 14 15 rings

> <PUBCHEM_HEAVY_ATOM_COUNT>
39

> <PUBCHEM_ATOM_DEF_STEREO_COUNT>
0

> <PUBCHEM_ATOM_UDEF_STEREO_COUNT>
0

> <PUBCHEM_BOND_DEF_STEREO_COUNT>
0

> <PUBCHEM_BOND_UDEF_STEREO_COUNT>
0

> <PUBCHEM_ISOTOPIC_ATOM_COUNT>
0

> <PUBCHEM_COMPONENT_COUNT>
1

> <PUBCHEM_CACTVS_TAUTO_COUNT>
9

> <PUBCHEM_CONFORMER_ID>
07E6F58F00000006

> <PUBCHEM_MMFF94_ENERGY>
124.46

> <PUBCHEM_FEATURE_SELFOVERLAP>
55.85

> <PUBCHEM_SHAPE_FINGERPRINT>
10369192 42 16883034755889704804
11578080 2 16298103202817437100
12156800 1 15022370389910479975
13111901 51 17761202620305504124
133893 2 18117548737580810309
13583140 156 17530960323729042458
14040221 299 17678486158341536202
14725015 67 16460519418556960277
14840074 17 18413388717802193468
15219462 58 17608661504873529442
15297060 5 17846788437954530782
15975801 100 18122350078254644734
161222 10 17775291572754675871
20764821 26 18043528519898631324
3493558 16 17340372185171913504
469060 322 18337942424991442215
57527306 92 17826271503661822774

> <PUBCHEM_SHAPE_MULTIPOLES>
756.09
10.03
4.95
4.2
0.81
4.82
1.96
-0.16
6.59
3.74
-4.67
-2.2
-2.31
-2.11

> <PUBCHEM_SHAPE_SELFOVERLAP>
1626.096

> <PUBCHEM_SHAPE_VOLUME>
416.7

> <PUBCHEM_COORDINATE_TYPE>
2
5
10

$$$$