174
 OpenBabel03292022023D

 42 45  0  0  0  0  0  0  0  0999 V2000
    5.1376    1.6568    1.0960 O   0  0  0  0  0  0  0  0  0  0  0  0
    4.3065    0.8753    0.6429 C   0  0  0  0  0  0  0  0  0  0  0  0
    3.0275    0.6621    1.1270 N   0  0  0  0  0  0  0  0  0  0  0  0
    2.3698    1.3899    2.1554 C   0  0  0  0  0  0  0  0  0  0  0  0
    2.8861    2.6219    2.5941 C   0  0  0  0  0  0  0  0  0  0  0  0
    2.2766    3.3569    3.6125 C   0  0  0  0  0  0  0  0  0  0  0  0
    1.1195    2.8850    4.2075 C   0  0  0  0  0  0  0  0  0  0  0  0
    0.5698    1.6777    3.7811 C   0  0  0  0  0  0  0  0  0  0  0  0
    1.1797    0.9144    2.7596 C   0  0  0  0  0  0  0  0  0  0  0  0
    0.5888   -0.3376    2.4167 N   0  0  0  0  0  0  0  0  0  0  0  0
   -0.4958   -0.9550    3.0025 C   0  0  0  0  0  0  0  0  0  0  0  0
   -0.5740   -2.1968    2.4173 C   0  0  0  0  0  0  0  0  0  0  0  0
   -1.4858   -3.2683    2.7899 C   0  0  0  0  0  0  0  0  0  0  0  0
   -2.4697   -3.0889    3.7781 C   0  0  0  0  0  0  0  0  0  0  0  0
   -3.3080   -4.1406    4.1577 C   0  0  0  0  0  0  0  0  0  0  0  0
   -3.1782   -5.3867    3.5524 C   0  0  0  0  0  0  0  0  0  0  0  0
   -2.2136   -5.5800    2.5656 C   0  0  0  0  0  0  0  0  0  0  0  0
   -1.3734   -4.5271    2.1864 C   0  0  0  0  0  0  0  0  0  0  0  0
    0.3851   -2.2822    1.4454 N   0  0  0  0  0  0  0  0  0  0  0  0
    1.0720   -1.1451    1.4357 N   0  0  0  0  0  0  0  0  0  0  0  0
    4.7153    0.0273   -0.5110 C   0  0  0  0  0  0  0  0  0  0  0  0
    6.0651   -0.3350   -0.6229 C   0  0  0  0  0  0  0  0  0  0  0  0
    6.5044   -1.0843   -1.7145 C   0  0  0  0  0  0  0  0  0  0  0  0
    5.5998   -1.4638   -2.7047 C   0  0  0  0  0  0  0  0  0  0  0  0
    4.2571   -1.0951   -2.6052 C   0  0  0  0  0  0  0  0  0  0  0  0
    3.8108   -0.3497   -1.5108 C   0  0  0  0  0  0  0  0  0  0  0  0
    2.5503   -0.1822    0.8114 H   0  0  0  0  0  0  0  0  0  0  0  0
    3.7780    3.0540    2.1496 H   0  0  0  0  0  0  0  0  0  0  0  0
    2.7156    4.2982    3.9338 H   0  0  0  0  0  0  0  0  0  0  0  0
    0.6446    3.4531    5.0033 H   0  0  0  0  0  0  0  0  0  0  0  0
   -0.3404    1.3619    4.2814 H   0  0  0  0  0  0  0  0  0  0  0  0
   -1.0653   -0.5064    3.7975 H   0  0  0  0  0  0  0  0  0  0  0  0
   -2.5999   -2.1337    4.2784 H   0  0  0  0  0  0  0  0  0  0  0  0
   -4.0575   -3.9858    4.9302 H   0  0  0  0  0  0  0  0  0  0  0  0
   -3.8260   -6.2069    3.8515 H   0  0  0  0  0  0  0  0  0  0  0  0
   -2.1090   -6.5538    2.0940 H   0  0  0  0  0  0  0  0  0  0  0  0
   -0.6202   -4.7065    1.4200 H   0  0  0  0  0  0  0  0  0  0  0  0
    6.7777   -0.0257    0.1393 H   0  0  0  0  0  0  0  0  0  0  0  0
    7.5526   -1.3614   -1.7952 H   0  0  0  0  0  0  0  0  0  0  0  0
    5.9444   -2.0389   -3.5607 H   0  0  0  0  0  0  0  0  0  0  0  0
    3.5596   -1.3790   -3.3898 H   0  0  0  0  0  0  0  0  0  0  0  0
    2.7689   -0.0436   -1.4708 H   0  0  0  0  0  0  0  0  0  0  0  0
  1  2  2  0  0  0  0
  2  3  1  0  0  0  0
  2 21  1  0  0  0  0
  3  4  1  0  0  0  0
  3 27  1  0  0  0  0
  4  5  1  0  0  0  0
  4  9  2  0  0  0  0
  5  6  2  0  0  0  0
  5 28  1  0  0  0  0
  6  7  1  0  0  0  0
  6 29  1  0  0  0  0
  7  8  2  0  0  0  0
  7 30  1  0  0  0  0
  8  9  1  0  0  0  0
  8 31  1  0  0  0  0
  9 10  1  0  0  0  0
 10 11  1  0  0  0  0
 10 20  1  0  0  0  0
 11 12  2  0  0  0  0
 11 32  1  0  0  0  0
 12 13  1  0  0  0  0
 12 19  1  0  0  0  0
 13 14  1  0  0  0  0
 13 18  2  0  0  0  0
 14 15  2  0  0  0  0
 14 33  1  0  0  0  0
 15 16  1  0  0  0  0
 15 34  1  0  0  0  0
 16 17  2  0  0  0  0
 16 35  1  0  0  0  0
 17 18  1  0  0  0  0
 17 36  1  0  0  0  0
 18 37  1  0  0  0  0
 19 20  2  0  0  0  0
 21 22  1  0  0  0  0
 21 26  2  0  0  0  0
 22 23  2  0  0  0  0
 22 38  1  0  0  0  0
 23 24  1  0  0  0  0
 23 39  1  0  0  0  0
 24 25  2  0  0  0  0
 24 40  1  0  0  0  0
 25 26  1  0  0  0  0
 25 41  1  0  0  0  0
 26 42  1  0  0  0  0
M  END
>  <Energy>
78.7738

$$$$