175
 OpenBabel03292022023D

 65 69  0  0  1  0  0  0  0  0999 V2000
    1.3311   -2.1829   -0.7749 C   0  0  0  0  0  0  0  0  0  0  0  0
    2.5355   -1.2866   -0.6155 C   0  0  0  0  0  0  0  0  0  0  0  0
    3.7456   -1.5404   -1.5207 C   0  0  2  0  0  0  0  0  0  0  0  0
    4.2431   -3.0655   -1.9049 C   0  0  0  0  0  0  0  0  0  0  0  0
    5.6824   -3.5600   -1.6280 N   0  0  0  0  0  0  0  0  0  0  0  0
    5.6950   -4.7453   -0.7426 C   0  0  0  0  0  0  0  0  0  0  0  0
    6.6085   -2.5080   -1.0558 C   0  0  1  0  0  0  0  0  0  0  0  0
    7.3010   -1.7916   -2.2944 C   0  0  0  0  0  0  0  0  0  0  0  0
    7.4918   -0.2764   -2.4902 C   0  0  0  0  0  0  0  0  0  0  0  0
    7.2852    0.8161   -1.6362 C   0  0  0  0  0  0  0  0  0  0  0  0
    7.7201    1.9448   -2.2984 N   0  0  0  0  0  0  0  0  0  0  0  0
    7.7857    1.7005   -3.6473 C   0  0  0  0  0  0  0  0  0  0  0  0
    7.9010    2.5893   -4.7255 C   0  0  0  0  0  0  0  0  0  0  0  0
    7.8533    2.0613   -6.0094 C   0  0  0  0  0  0  0  0  0  0  0  0
    7.7378    0.6882   -6.2149 C   0  0  0  0  0  0  0  0  0  0  0  0
    7.6727   -0.1896   -5.1221 C   0  0  0  0  0  0  0  0  0  0  0  0
    7.6750    0.3217   -3.8046 C   0  0  0  0  0  0  0  0  0  0  0  0
    6.6391    0.9055   -0.3450 C   0  0  0  0  0  0  0  0  0  0  0  0
    7.4112    1.2065    0.6474 N   0  0  0  0  0  0  0  0  0  0  0  0
    6.9390    1.2167    1.9207 N   0  0  0  0  0  0  0  0  0  0  0  0
    7.9166    1.1738    2.9550 C   0  0  0  0  0  0  0  0  0  0  0  0
    9.2668    1.4825    2.7386 C   0  0  0  0  0  0  0  0  0  0  0  0
   10.1817    1.4925    3.7974 C   0  0  0  0  0  0  0  0  0  0  0  0
    9.7530    1.2170    5.0938 C   0  0  0  0  0  0  0  0  0  0  0  0
    8.4111    0.9309    5.3312 C   0  0  0  0  0  0  0  0  0  0  0  0
    7.5001    0.9183    4.2705 C   0  0  0  0  0  0  0  0  0  0  0  0
    5.1078    0.6103   -0.3312 C   0  0  0  0  0  0  0  0  0  0  0  0
    4.9363   -0.7770   -0.9301 C   0  0  1  0  0  0  0  0  0  0  0  0
    5.6792   -1.7928   -0.0977 C   0  0  2  0  0  0  0  0  0  0  0  0
    5.9304   -1.7216    1.3944 C   0  0  0  0  0  0  0  0  0  0  0  0
    6.9627   -2.0483    1.9713 O   0  0  0  0  0  0  0  0  0  0  0  0
    4.7298   -1.5269    2.0249 O   0  0  0  0  0  0  0  0  0  0  0  0
    4.4767   -2.2609    3.2372 C   0  0  0  0  0  0  0  0  0  0  0  0
    0.5010   -1.7607   -0.1950 H   0  0  0  0  0  0  0  0  0  0  0  0
    1.5308   -3.1812   -0.3784 H   0  0  0  0  0  0  0  0  0  0  0  0
    1.0112   -2.2569   -1.8164 H   0  0  0  0  0  0  0  0  0  0  0  0
    2.8255   -1.2934    0.4380 H   0  0  0  0  0  0  0  0  0  0  0  0
    2.2095   -0.2543   -0.8143 H   0  0  0  0  0  0  0  0  0  0  0  0
    3.4872   -1.0924   -2.4943 H   0  0  0  0  0  0  0  0  0  0  0  0
    4.1518   -3.1466   -2.9956 H   0  0  0  0  0  0  0  0  0  0  0  0
    3.5251   -3.7879   -1.5013 H   0  0  0  0  0  0  0  0  0  0  0  0
    5.5219   -5.6554   -1.3209 H   0  0  0  0  0  0  0  0  0  0  0  0
    4.9499   -4.6885    0.0595 H   0  0  0  0  0  0  0  0  0  0  0  0
    6.6683   -4.8799   -0.2488 H   0  0  0  0  0  0  0  0  0  0  0  0
    7.4395   -2.9623   -0.4964 H   0  0  0  0  0  0  0  0  0  0  0  0
    6.7520   -2.1145   -3.1925 H   0  0  0  0  0  0  0  0  0  0  0  0
    8.2942   -2.2470   -2.4189 H   0  0  0  0  0  0  0  0  0  0  0  0
    7.7504    2.8653   -1.8822 H   0  0  0  0  0  0  0  0  0  0  0  0
    7.9802    3.6673   -4.5659 H   0  0  0  0  0  0  0  0  0  0  0  0
    7.8921    2.7289   -6.8714 H   0  0  0  0  0  0  0  0  0  0  0  0
    7.6778    0.2945   -7.2256 H   0  0  0  0  0  0  0  0  0  0  0  0
    7.5557   -1.2560   -5.3020 H   0  0  0  0  0  0  0  0  0  0  0  0
    6.1811    0.5815    2.1604 H   0  0  0  0  0  0  0  0  0  0  0  0
    9.6209    1.7009    1.7345 H   0  0  0  0  0  0  0  0  0  0  0  0
   11.2275    1.7171    3.6059 H   0  0  0  0  0  0  0  0  0  0  0  0
   10.4625    1.2290    5.9167 H   0  0  0  0  0  0  0  0  0  0  0  0
    8.0709    0.7206    6.3413 H   0  0  0  0  0  0  0  0  0  0  0  0
    6.4574    0.6983    4.4791 H   0  0  0  0  0  0  0  0  0  0  0  0
    4.6144    1.3595   -0.9612 H   0  0  0  0  0  0  0  0  0  0  0  0
    4.6831    0.6969    0.6705 H   0  0  0  0  0  0  0  0  0  0  0  0
    5.3817   -0.6214   -1.9049 H   0  0  0  0  0  0  0  0  0  0  0  0
    4.9066   -2.5422    0.1363 H   0  0  0  0  0  0  0  0  0  0  0  0
    3.6109   -2.9176    3.0718 H   0  0  0  0  0  0  0  0  0  0  0  0
    4.2097   -1.5507    4.0227 H   0  0  0  0  0  0  0  0  0  0  0  0
    5.3171   -2.8818    3.5530 H   0  0  0  0  0  0  0  0  0  0  0  0
  1  2  1  0  0  0  0
  1 34  1  0  0  0  0
  1 35  1  0  0  0  0
  1 36  1  0  0  0  0
  2  3  1  0  0  0  0
  2 37  1  0  0  0  0
  2 38  1  0  0  0  0
  3  4  1  0  0  0  0
  3 28  1  0  0  0  0
  3 39  1  6  0  0  0
  4  5  1  0  0  0  0
  4 40  1  0  0  0  0
  4 41  1  0  0  0  0
  5  6  1  0  0  0  0
  5  7  1  0  0  0  0
  6 42  1  0  0  0  0
  6 43  1  0  0  0  0
  6 44  1  0  0  0  0
  7  8  1  0  0  0  0
  7 29  1  0  0  0  0
  7 45  1  1  0  0  0
  8  9  1  0  0  0  0
  8 46  1  0  0  0  0
  8 47  1  0  0  0  0
  9 10  2  0  0  0  0
  9 17  1  0  0  0  0
 10 11  1  0  0  0  0
 10 18  1  0  0  0  0
 11 12  1  0  0  0  0
 11 48  1  0  0  0  0
 12 13  1  0  0  0  0
 12 17  2  0  0  0  0
 13 14  2  0  0  0  0
 13 49  1  0  0  0  0
 14 15  1  0  0  0  0
 14 50  1  0  0  0  0
 15 16  2  0  0  0  0
 15 51  1  0  0  0  0
 16 17  1  0  0  0  0
 16 52  1  0  0  0  0
 18 19  2  0  0  0  0
 18 27  1  0  0  0  0
 19 20  1  0  0  0  0
 20 21  1  0  0  0  0
 20 53  1  0  0  0  0
 21 22  1  0  0  0  0
 21 26  2  0  0  0  0
 22 23  2  0  0  0  0
 22 54  1  0  0  0  0
 23 24  1  0  0  0  0
 23 55  1  0  0  0  0
 24 25  2  0  0  0  0
 24 56  1  0  0  0  0
 25 26  1  0  0  0  0
 25 57  1  0  0  0  0
 26 58  1  0  0  0  0
 27 28  1  0  0  0  0
 27 59  1  0  0  0  0
 27 60  1  0  0  0  0
 28 29  1  0  0  0  0
 28 61  1  6  0  0  0
 29 30  1  0  0  0  0
 29 62  1  1  0  0  0
 30 31  2  0  0  0  0
 30 32  1  0  0  0  0
 32 33  1  0  0  0  0
 33 63  1  0  0  0  0
 33 64  1  0  0  0  0
 33 65  1  0  0  0  0
M  END
>  <Energy>
211.059

$$$$