176
 OpenBabel03292022023D

 64 68  0  0  1  0  0  0  0  0999 V2000
    1.2649   -0.3787   -0.8345 C   0  0  0  0  0  0  0  0  0  0  0  0
    2.4310   -1.3099   -1.1399 C   0  0  0  0  0  0  0  0  0  0  0  0
    3.7661   -0.7167   -0.6898 C   0  0  2  0  0  0  0  0  0  0  0  0
    4.3096    0.5124   -1.6308 C   0  0  0  0  0  0  0  0  0  0  0  0
    5.7127    0.5144   -2.2353 N   0  0  0  0  0  0  0  0  0  0  0  0
    5.6837    0.6016   -3.7070 C   0  0  0  0  0  0  0  0  0  0  0  0
    6.5799   -0.6435   -1.8074 C   0  0  1  0  0  0  0  0  0  0  0  0
    7.2798   -0.1393   -0.4613 C   0  0  0  0  0  0  0  0  0  0  0  0
    7.4736   -0.9446    0.8372 C   0  0  0  0  0  0  0  0  0  0  0  0
    7.2432   -2.2850    1.1468 C   0  0  0  0  0  0  0  0  0  0  0  0
    7.6814   -2.5085    2.4305 N   0  0  0  0  0  0  0  0  0  0  0  0
    7.7757   -1.3156    3.0984 C   0  0  0  0  0  0  0  0  0  0  0  0
    7.9077   -1.0575    4.4690 C   0  0  0  0  0  0  0  0  0  0  0  0
    7.8807    0.2763    4.8818 C   0  0  0  0  0  0  0  0  0  0  0  0
    7.7665    1.3064    3.9533 C   0  0  0  0  0  0  0  0  0  0  0  0
    7.6869    1.0296    2.5801 C   0  0  0  0  0  0  0  0  0  0  0  0
    7.6727   -0.3123    2.1344 C   0  0  0  0  0  0  0  0  0  0  0  0
    6.5666   -3.3223    0.3936 C   0  0  0  0  0  0  0  0  0  0  0  0
    7.3664   -4.2367   -0.0631 N   0  0  0  0  0  0  0  0  0  0  0  0
    6.9582   -5.2270   -0.8946 N   0  0  0  0  0  0  0  0  0  0  0  0
    7.8921   -5.6253   -1.8895 C   0  0  0  0  0  0  0  0  0  0  0  0
    9.2701   -5.5489   -1.6743 C   0  0  0  0  0  0  0  0  0  0  0  0
   10.1570   -5.8589   -2.7106 C   0  0  0  0  0  0  0  0  0  0  0  0
    9.6463   -6.2443   -3.9390 C   0  0  0  0  0  0  0  0  0  0  0  0
   10.7853   -6.6291   -5.3897 Br  0  0  0  0  0  0  0  0  0  0  0  0
    8.2735   -6.3287   -4.0719 C   0  0  0  0  0  0  0  0  0  0  0  0
    7.3966   -6.0426   -3.0762 N   0  0  0  0  0  0  0  0  0  0  0  0
    5.0270   -3.1076    0.2102 C   0  0  0  0  0  0  0  0  0  0  0  0
    4.8681   -1.7836   -0.5466 C   0  0  1  0  0  0  0  0  0  0  0  0
    5.5992   -1.8079   -1.8647 C   0  0  2  0  0  0  0  0  0  0  0  0
    5.7846   -3.0669   -2.6835 C   0  0  0  0  0  0  0  0  0  0  0  0
    5.1276   -4.0950   -2.4786 O   0  0  0  0  0  0  0  0  0  0  0  0
    6.4088   -2.7903   -3.8674 O   0  0  0  0  0  0  0  0  0  0  0  0
    5.9388   -3.6059   -4.9455 C   0  0  0  0  0  0  0  0  0  0  0  0
    0.3186   -0.8635   -1.0930 H   0  0  0  0  0  0  0  0  0  0  0  0
    1.3371    0.5554   -1.3988 H   0  0  0  0  0  0  0  0  0  0  0  0
    1.2301   -0.1318    0.2328 H   0  0  0  0  0  0  0  0  0  0  0  0
    2.4484   -1.5437   -2.2097 H   0  0  0  0  0  0  0  0  0  0  0  0
    2.2582   -2.2515   -0.6054 H   0  0  0  0  0  0  0  0  0  0  0  0
    3.6020   -0.2731    0.3053 H   0  0  0  0  0  0  0  0  0  0  0  0
    4.2715    1.4172   -1.0116 H   0  0  0  0  0  0  0  0  0  0  0  0
    3.5774    0.6840   -2.4304 H   0  0  0  0  0  0  0  0  0  0  0  0
    5.4143    1.6100   -4.0265 H   0  0  0  0  0  0  0  0  0  0  0  0
    4.9848   -0.1082   -4.1653 H   0  0  0  0  0  0  0  0  0  0  0  0
    6.6732    0.3955   -4.1392 H   0  0  0  0  0  0  0  0  0  0  0  0
    7.4033   -0.8057   -2.5152 H   0  0  0  0  0  0  0  0  0  0  0  0
    6.7286    0.7570   -0.1318 H   0  0  0  0  0  0  0  0  0  0  0  0
    8.2681    0.2550   -0.7389 H   0  0  0  0  0  0  0  0  0  0  0  0
    7.6897   -3.4171    2.8754 H   0  0  0  0  0  0  0  0  0  0  0  0
    7.9837   -1.8619    5.1934 H   0  0  0  0  0  0  0  0  0  0  0  0
    7.9323    0.5084    5.9437 H   0  0  0  0  0  0  0  0  0  0  0  0
    7.7183    2.3368    4.2979 H   0  0  0  0  0  0  0  0  0  0  0  0
    7.5687    1.8482    1.8764 H   0  0  0  0  0  0  0  0  0  0  0  0
    6.0406   -5.1869   -1.3576 H   0  0  0  0  0  0  0  0  0  0  0  0
    9.6536   -5.2206   -0.7139 H   0  0  0  0  0  0  0  0  0  0  0  0
   11.2276   -5.7806   -2.5485 H   0  0  0  0  0  0  0  0  0  0  0  0
    7.8126   -6.6202   -5.0115 H   0  0  0  0  0  0  0  0  0  0  0  0
    4.5886   -3.0102    1.2120 H   0  0  0  0  0  0  0  0  0  0  0  0
    4.5394   -3.9597   -0.2589 H   0  0  0  0  0  0  0  0  0  0  0  0
    5.3782   -1.1627    0.1728 H   0  0  0  0  0  0  0  0  0  0  0  0
    4.8060   -1.5193   -2.5763 H   0  0  0  0  0  0  0  0  0  0  0  0
    6.5920   -3.4526   -5.8068 H   0  0  0  0  0  0  0  0  0  0  0  0
    4.9248   -3.2919   -5.2203 H   0  0  0  0  0  0  0  0  0  0  0  0
    5.9299   -4.6698   -4.6986 H   0  0  0  0  0  0  0  0  0  0  0  0
  1  2  1  0  0  0  0
  1 35  1  0  0  0  0
  1 36  1  0  0  0  0
  1 37  1  0  0  0  0
  2 38  1  0  0  0  0
  2 39  1  0  0  0  0
  3  4  1  0  0  0  0
  3 29  1  0  0  0  0
  3  2  1  0  0  0  0
  3 40  1  1  0  0  0
  4  5  1  0  0  0  0
  4 41  1  0  0  0  0
  4 42  1  0  0  0  0
  5  6  1  0  0  0  0
  5  7  1  0  0  0  0
  6 43  1  0  0  0  0
  6 44  1  0  0  0  0
  6 45  1  0  0  0  0
  7  8  1  0  0  0  0
  7 30  1  0  0  0  0
  7 46  1  6  0  0  0
  8  9  1  0  0  0  0
  8 47  1  0  0  0  0
  8 48  1  0  0  0  0
  9 10  2  0  0  0  0
  9 17  1  0  0  0  0
 10 11  1  0  0  0  0
 10 18  1  0  0  0  0
 11 12  1  0  0  0  0
 11 49  1  0  0  0  0
 12 13  1  0  0  0  0
 12 17  2  0  0  0  0
 13 14  2  0  0  0  0
 13 50  1  0  0  0  0
 14 15  1  0  0  0  0
 14 51  1  0  0  0  0
 15 16  2  0  0  0  0
 15 52  1  0  0  0  0
 16 17  1  0  0  0  0
 16 53  1  0  0  0  0
 18 19  2  0  0  0  0
 18 28  1  0  0  0  0
 19 20  1  0  0  0  0
 20 21  1  0  0  0  0
 20 54  1  0  0  0  0
 21 22  1  0  0  0  0
 21 27  2  0  0  0  0
 22 23  2  0  0  0  0
 22 55  1  0  0  0  0
 23 24  1  0  0  0  0
 23 56  1  0  0  0  0
 24 25  1  0  0  0  0
 24 26  2  0  0  0  0
 26 27  1  0  0  0  0
 26 57  1  0  0  0  0
 28 29  1  0  0  0  0
 28 58  1  0  0  0  0
 28 59  1  0  0  0  0
 29 30  1  0  0  0  0
 29 60  1  1  0  0  0
 30 31  1  0  0  0  0
 30 61  1  6  0  0  0
 31 32  2  0  0  0  0
 31 33  1  0  0  0  0
 33 34  1  0  0  0  0
 34 62  1  0  0  0  0
 34 63  1  0  0  0  0
 34 64  1  0  0  0  0
M  END
>  <Energy>
195.132

$$$$