177
 OpenBabel03292022023D

 54 57  0  0  1  0  0  0  0  0999 V2000
    1.8763    0.4546   -0.4744 C   0  0  0  0  0  0  0  0  0  0  0  0
    2.8738   -0.4704    0.1933 C   0  0  0  0  0  0  0  0  0  0  0  0
    3.7700    0.1779    1.2661 C   0  0  1  0  0  0  0  0  0  0  0  0
    4.6928   -1.0110    1.8862 C   0  0  0  0  0  0  0  0  0  0  0  0
    6.0601   -0.7404    2.4607 N   0  0  0  0  0  0  0  0  0  0  0  0
    6.0678   -0.7650    3.9251 C   0  0  0  0  0  0  0  0  0  0  0  0
    6.7321    0.4902    1.9015 C   0  0  1  0  0  0  0  0  0  0  0  0
    7.3698    0.0417    0.5200 C   0  0  0  0  0  0  0  0  0  0  0  0
    7.3322    0.8268   -0.7944 C   0  0  0  0  0  0  0  0  0  0  0  0
    6.8558    2.0966   -1.1253 C   0  0  0  0  0  0  0  0  0  0  0  0
    7.2710    2.3625   -2.4137 N   0  0  0  0  0  0  0  0  0  0  0  0
    7.5478    1.1913   -3.0598 C   0  0  0  0  0  0  0  0  0  0  0  0
    7.7225    0.9344   -4.4316 C   0  0  0  0  0  0  0  0  0  0  0  0
    7.8986   -0.3935   -4.8259 C   0  0  0  0  0  0  0  0  0  0  0  0
    7.9274   -1.4135   -3.8808 C   0  0  0  0  0  0  0  0  0  0  0  0
    7.8063   -1.1303   -2.5116 C   0  0  0  0  0  0  0  0  0  0  0  0
    7.5959    0.2007   -2.0829 C   0  0  0  0  0  0  0  0  0  0  0  0
    6.0057    3.0402   -0.4343 C   0  0  0  0  0  0  0  0  0  0  0  0
    6.5245    4.2105   -0.2267 N   0  0  0  0  0  0  0  0  0  0  0  0
    5.6508    5.0817    0.4155 O   0  0  0  0  0  0  0  0  0  0  0  0
    4.5692    2.5525   -0.0578 C   0  0  0  0  0  0  0  0  0  0  0  0
    4.7292    1.2770    0.7673 C   0  0  1  0  0  0  0  0  0  0  0  0
    5.6359    1.5428    1.9690 C   0  0  2  0  0  0  0  0  0  0  0  0
    5.7962    2.9259    2.5875 C   0  0  0  0  0  0  0  0  0  0  0  0
    4.8630    3.7193    2.6558 O   0  0  0  0  0  0  0  0  0  0  0  0
    6.9326    3.0498    3.3220 O   0  0  0  0  0  0  0  0  0  0  0  0
    6.8251    4.0770    4.3139 C   0  0  0  0  0  0  0  0  0  0  0  0
    1.1467   -0.1391   -1.0359 H   0  0  0  0  0  0  0  0  0  0  0  0
    2.3632    1.1134   -1.1951 H   0  0  0  0  0  0  0  0  0  0  0  0
    1.3365    1.0597    0.2570 H   0  0  0  0  0  0  0  0  0  0  0  0
    3.4941   -0.9367   -0.5837 H   0  0  0  0  0  0  0  0  0  0  0  0
    2.3144   -1.2872    0.6677 H   0  0  0  0  0  0  0  0  0  0  0  0
    3.1321    0.5805    2.0637 H   0  0  0  0  0  0  0  0  0  0  0  0
    4.8754   -1.7359    1.0825 H   0  0  0  0  0  0  0  0  0  0  0  0
    4.0829   -1.5569    2.6189 H   0  0  0  0  0  0  0  0  0  0  0  0
    5.8925   -1.7773    4.2873 H   0  0  0  0  0  0  0  0  0  0  0  0
    5.3162   -0.1071    4.3770 H   0  0  0  0  0  0  0  0  0  0  0  0
    7.0503   -0.4613    4.3185 H   0  0  0  0  0  0  0  0  0  0  0  0
    7.5778    0.7729    2.5391 H   0  0  0  0  0  0  0  0  0  0  0  0
    6.9499   -0.9427    0.2612 H   0  0  0  0  0  0  0  0  0  0  0  0
    8.4296   -0.1778    0.7178 H   0  0  0  0  0  0  0  0  0  0  0  0
    7.1352    3.2533   -2.8696 H   0  0  0  0  0  0  0  0  0  0  0  0
    7.6854    1.7332   -5.1668 H   0  0  0  0  0  0  0  0  0  0  0  0
    7.9985   -0.6333   -5.8838 H   0  0  0  0  0  0  0  0  0  0  0  0
    8.0258   -2.4470   -4.2082 H   0  0  0  0  0  0  0  0  0  0  0  0
    7.8031   -1.9466   -1.7940 H   0  0  0  0  0  0  0  0  0  0  0  0
    6.2589    5.7039    0.8578 H   0  0  0  0  0  0  0  0  0  0  0  0
    4.0655    2.3475   -1.0068 H   0  0  0  0  0  0  0  0  0  0  0  0
    3.9876    3.3216    0.4508 H   0  0  0  0  0  0  0  0  0  0  0  0
    5.1964    0.6470    0.0171 H   0  0  0  0  0  0  0  0  0  0  0  0
    5.0191    1.2553    2.8381 H   0  0  0  0  0  0  0  0  0  0  0  0
    7.8045    4.2174    4.7809 H   0  0  0  0  0  0  0  0  0  0  0  0
    6.1175    3.7661    5.0918 H   0  0  0  0  0  0  0  0  0  0  0  0
    6.5099    5.0330    3.8805 H   0  0  0  0  0  0  0  0  0  0  0  0
  1  2  1  0  0  0  0
  1 28  1  0  0  0  0
  1 29  1  0  0  0  0
  1 30  1  0  0  0  0
  2  3  1  0  0  0  0
  2 31  1  0  0  0  0
  2 32  1  0  0  0  0
  3  4  1  0  0  0  0
  3 22  1  0  0  0  0
  3 33  1  1  0  0  0
  4  5  1  0  0  0  0
  4 34  1  0  0  0  0
  4 35  1  0  0  0  0
  5  6  1  0  0  0  0
  5  7  1  0  0  0  0
  6 36  1  0  0  0  0
  6 37  1  0  0  0  0
  6 38  1  0  0  0  0
  7  8  1  0  0  0  0
  7 23  1  0  0  0  0
  7 39  1  1  0  0  0
  8  9  1  0  0  0  0
  8 40  1  0  0  0  0
  8 41  1  0  0  0  0
  9 10  2  0  0  0  0
  9 17  1  0  0  0  0
 10 11  1  0  0  0  0
 10 18  1  0  0  0  0
 11 12  1  0  0  0  0
 11 42  1  0  0  0  0
 12 13  1  0  0  0  0
 12 17  2  0  0  0  0
 13 14  2  0  0  0  0
 13 43  1  0  0  0  0
 14 15  1  0  0  0  0
 14 44  1  0  0  0  0
 15 16  2  0  0  0  0
 15 45  1  0  0  0  0
 16 17  1  0  0  0  0
 16 46  1  0  0  0  0
 18 19  2  0  0  0  0
 18 21  1  0  0  0  0
 19 20  1  0  0  0  0
 20 47  1  0  0  0  0
 21 22  1  0  0  0  0
 21 48  1  0  0  0  0
 21 49  1  0  0  0  0
 22 23  1  0  0  0  0
 22 50  1  6  0  0  0
 23 24  1  0  0  0  0
 23 51  1  1  0  0  0
 24 25  2  0  0  0  0
 24 26  1  0  0  0  0
 26 27  1  0  0  0  0
 27 52  1  0  0  0  0
 27 53  1  0  0  0  0
 27 54  1  0  0  0  0
M  END
>  <Energy>
161.744

$$$$