15999199
  -OEChem-03242010103D

 48 51  0     0  0  0  0  0  0999 V2000
    2.4073   -3.6438    0.4591 O   0  0  0  0  0  0  0  0  0  0  0  0
    5.0519   -3.2569   -0.3046 O   0  0  0  0  0  0  0  0  0  0  0  0
   -6.2539   -2.9887   -0.4453 O   0  5  0  0  0  0  0  0  0  0  0  0
   -5.0206   -3.5693    1.2754 O   0  0  0  0  0  0  0  0  0  0  0  0
   -1.9642    1.6558   -0.5566 N   0  0  0  0  0  0  0  0  0  0  0  0
    0.2247    0.8152   -0.3609 N   0  0  0  0  0  0  0  0  0  0  0  0
    2.0625    2.2825    0.1647 N   0  0  0  0  0  0  0  0  0  0  0  0
   -5.2783   -2.7974    0.3203 N   0  3  0  0  0  0  0  0  0  0  0  0
   -0.1536    3.1789   -0.0260 C   0  0  0  0  0  0  0  0  0  0  0  0
   -0.5885    1.8868   -0.3074 C   0  0  0  0  0  0  0  0  0  0  0  0
    1.2224    3.3312    0.2102 C   0  0  0  0  0  0  0  0  0  0  0  0
    1.5182    1.0816   -0.1185 C   0  0  0  0  0  0  0  0  0  0  0  0
    2.4240   -0.0363   -0.1653 C   0  0  0  0  0  0  0  0  0  0  0  0
   -1.0226    4.2826    0.0242 C   0  0  0  0  0  0  0  0  0  0  0  0
   -2.7932    0.5443   -0.3363 C   0  0  0  0  0  0  0  0  0  0  0  0
    1.6953    4.6098    0.4951 C   0  0  0  0  0  0  0  0  0  0  0  0
    1.9793   -1.3185    0.1725 C   0  0  0  0  0  0  0  0  0  0  0  0
    3.7556    0.1516   -0.5491 C   0  0  0  0  0  0  0  0  0  0  0  0
    2.8571   -2.4015    0.1270 C   0  0  0  0  0  0  0  0  0  0  0  0
   -0.5231    5.5491    0.3112 C   0  0  0  0  0  0  0  0  0  0  0  0
    0.8375    5.7125    0.5468 C   0  0  0  0  0  0  0  0  0  0  0  0
    4.1841   -2.2079   -0.2567 C   0  0  0  0  0  0  0  0  0  0  0  0
    4.6334   -0.9313   -0.5946 C   0  0  0  0  0  0  0  0  0  0  0  0
   -3.8858    0.3041   -1.1746 C   0  0  0  0  0  0  0  0  0  0  0  0
   -2.5294   -0.3316    0.7210 C   0  0  0  0  0  0  0  0  0  0  0  0
   -4.7073   -0.8022   -0.9575 C   0  0  0  0  0  0  0  0  0  0  0  0
   -3.3508   -1.4379    0.9378 C   0  0  0  0  0  0  0  0  0  0  0  0
   -4.4398   -1.6732    0.0987 C   0  0  0  0  0  0  0  0  0  0  0  0
    1.8734   -4.4428   -0.5948 C   0  0  0  0  0  0  0  0  0  0  0  0
    5.7846   -3.5468    0.8842 C   0  0  0  0  0  0  0  0  0  0  0  0
   -2.3721    2.3418   -1.1859 H   0  0  0  0  0  0  0  0  0  0  0  0
   -2.0912    4.1879   -0.1469 H   0  0  0  0  0  0  0  0  0  0  0  0
    2.7560    4.7645    0.6835 H   0  0  0  0  0  0  0  0  0  0  0  0
    0.9517   -1.4939    0.4848 H   0  0  0  0  0  0  0  0  0  0  0  0
    4.1348    1.1319   -0.8281 H   0  0  0  0  0  0  0  0  0  0  0  0
   -1.1911    6.4040    0.3527 H   0  0  0  0  0  0  0  0  0  0  0  0
    1.2357    6.6977    0.7719 H   0  0  0  0  0  0  0  0  0  0  0  0
    5.6652   -0.7739   -0.8969 H   0  0  0  0  0  0  0  0  0  0  0  0
   -4.1054    0.9737   -2.0026 H   0  0  0  0  0  0  0  0  0  0  0  0
   -1.6946   -0.1636    1.3966 H   0  0  0  0  0  0  0  0  0  0  0  0
   -5.5466   -0.9538   -1.6315 H   0  0  0  0  0  0  0  0  0  0  0  0
   -3.1139   -2.0934    1.7720 H   0  0  0  0  0  0  0  0  0  0  0  0
    2.6312   -4.6238   -1.3635 H   0  0  0  0  0  0  0  0  0  0  0  0
    0.9973   -3.9579   -1.0371 H   0  0  0  0  0  0  0  0  0  0  0  0
    1.5659   -5.4039   -0.1739 H   0  0  0  0  0  0  0  0  0  0  0  0
    6.4253   -4.4112    0.6894 H   0  0  0  0  0  0  0  0  0  0  0  0
    5.1045   -3.7933    1.7057 H   0  0  0  0  0  0  0  0  0  0  0  0
    6.4171   -2.6975    1.1615 H   0  0  0  0  0  0  0  0  0  0  0  0
  1 19  1  0  0  0  0
  1 29  1  0  0  0  0
  2 22  1  0  0  0  0
  2 30  1  0  0  0  0
  3  8  1  0  0  0  0
  4  8  2  0  0  0  0
  5 10  1  0  0  0  0
  5 15  1  0  0  0  0
  5 31  1  0  0  0  0
  6 10  2  0  0  0  0
  6 12  1  0  0  0  0
  7 11  1  0  0  0  0
  7 12  2  0  0  0  0
  8 28  1  0  0  0  0
  9 10  1  0  0  0  0
  9 11  1  0  0  0  0
  9 14  2  0  0  0  0
 11 16  2  0  0  0  0
 12 13  1  0  0  0  0
 13 17  2  0  0  0  0
 13 18  1  0  0  0  0
 14 20  1  0  0  0  0
 14 32  1  0  0  0  0
 15 24  2  0  0  0  0
 15 25  1  0  0  0  0
 16 21  1  0  0  0  0
 16 33  1  0  0  0  0
 17 19  1  0  0  0  0
 17 34  1  0  0  0  0
 18 23  2  0  0  0  0
 18 35  1  0  0  0  0
 19 22  2  0  0  0  0
 20 21  2  0  0  0  0
 20 36  1  0  0  0  0
 21 37  1  0  0  0  0
 22 23  1  0  0  0  0
 23 38  1  0  0  0  0
 24 26  1  0  0  0  0
 24 39  1  0  0  0  0
 25 27  2  0  0  0  0
 25 40  1  0  0  0  0
 26 28  2  0  0  0  0
 26 41  1  0  0  0  0
 27 28  1  0  0  0  0
 27 42  1  0  0  0  0
 29 43  1  0  0  0  0
 29 44  1  0  0  0  0
 29 45  1  0  0  0  0
 30 46  1  0  0  0  0
 30 47  1  0  0  0  0
 30 48  1  0  0  0  0
M  CHG  2   3  -1   8   1
M  END
> <PUBCHEM_COMPOUND_CID>
15999199

> <PUBCHEM_CONFORMER_RMSD>
0.8

> <PUBCHEM_CONFORMER_DIVERSEORDER>
1
37
31
36
12
26
20
28
5
23
38
7
18
30
25
6
34
27
10
21
11
29
33
39
24
9
22
17
8
2
32
35
19
4
16
3
15
14
13

> <PUBCHEM_MMFF94_PARTIAL_CHARGES>
40
1 -0.36
10 0.41
11 0.31
12 0.62
14 -0.15
15 0.1
16 -0.15
17 -0.15
18 -0.15
19 0.08
2 -0.36
20 -0.15
21 -0.15
22 0.08
23 -0.15
24 -0.15
25 -0.15
26 -0.15
27 -0.15
28 0.13
29 0.28
3 -0.52
30 0.28
31 0.4
32 0.15
33 0.15
34 0.15
35 0.15
36 0.15
37 0.15
38 0.15
39 0.15
4 -0.52
40 0.15
41 0.15
42 0.15
5 -0.6
6 -0.62
7 -0.62
8 0.91

> <PUBCHEM_EFFECTIVE_ROTOR_COUNT>
6

> <PUBCHEM_PHARMACOPHORE_FEATURES>
12
1 1 acceptor
1 2 acceptor
1 3 acceptor
1 3 anion
1 4 acceptor
1 5 donor
3 5 6 10 cation
3 6 7 12 cation
6 13 17 18 19 22 23 rings
6 15 24 25 26 27 28 rings
6 6 7 9 10 11 12 rings
6 9 11 14 16 20 21 rings

> <PUBCHEM_HEAVY_ATOM_COUNT>
30

> <PUBCHEM_ATOM_DEF_STEREO_COUNT>
0

> <PUBCHEM_ATOM_UDEF_STEREO_COUNT>
0

> <PUBCHEM_BOND_DEF_STEREO_COUNT>
0

> <PUBCHEM_BOND_UDEF_STEREO_COUNT>
0

> <PUBCHEM_ISOTOPIC_ATOM_COUNT>
0

> <PUBCHEM_COMPONENT_COUNT>
1

> <PUBCHEM_CACTVS_TAUTO_COUNT>
3

> <PUBCHEM_CONFORMER_ID>
00F420DF00000001

> <PUBCHEM_MMFF94_ENERGY>
130.3049

> <PUBCHEM_FEATURE_SELFOVERLAP>
61.155

> <PUBCHEM_SHAPE_FINGERPRINT>
10411042 1 18411418392949518054
10622 236 17486184998259924567
11014199 57 18339084782985856368
11049842 53 14999051050119364289
11227688 84 18341323423114796926
114674 6 18117557555385922683
11719270 70 17907289210780255529
12107183 9 18270699597320569561
12788726 201 17975406915379085593
1361 2 17690278631418905851
13692114 37 16974196471712342953
138480 1 18411418457358281157
13911987 19 17973466552804381940
13955234 65 18053105317774560521
14068700 686 18199178504742758634
14363568 33 18265626561452852291
14659021 117 18048867507855395304
14844126 61 17976262331104505272
14863182 85 17830458641161300813
14866123 147 18123753054717484201
15250474 111 17974008337153355234
15320467 1 18194683902281284015
15351339 4 17683505261998032005
15400415 2 17402329769136389945
15927050 60 17620759817892095334
15968369 26 18117823619846161637
17859628 70 18122629615562800625
19319366 153 15588541834987211330
19427546 62 17401767918367477289
20028762 73 17623849432660144948
20775438 99 17832689546207400283
21133410 171 17468425466977842691
21133410 32 16300391325470621882
21133410 58 18266726052281889543
21796203 349 18121250733260629338
23559900 14 18337663213794331563
23569914 152 18051375580590680031
23845131 108 16972513124106560113
3383291 50 17689714156367018377
3421961 26 18339643472495425641
4403749 210 16752398618856565089
4461854 278 16388476770820684603
4616759 239 17552052028458687610
46194498 28 17459470133836722215
463206 1 18335708234359346475
5265222 85 16682054536327899694
5309563 4 18411983563543592791
613672 6 18266996424086650591
653340 110 18051120398939420490
6669772 16 17765443427990029716
6673363 416 18341906156937712676
6679774 75 17758379049092154568
86090 222 17387422457058116411

> <PUBCHEM_SHAPE_MULTIPOLES>
573.98
11.2
8.64
0.9
0.44
9.36
-0.03
-20.22
0.14
1.52
-1.91
0.4
-0.36
0.46

> <PUBCHEM_SHAPE_SELFOVERLAP>
1269.611

> <PUBCHEM_SHAPE_VOLUME>
306.3

> <PUBCHEM_COORDINATE_TYPE>
2
5
10

$$$$