180
 OpenBabel03292022023D

157164  0  0  1  0  0  0  0  0999 V2000
   13.1974   -7.2815   -2.3963 C   0  0  0  0  0  0  0  0  0  0  0  0
   12.8116   -5.8296   -2.5925 C   0  0  0  0  0  0  0  0  0  0  0  0
   13.2259   -5.3446   -3.8800 O   0  0  0  0  0  0  0  0  0  0  0  0
   12.2400   -5.0688   -4.7680 C   0  0  0  0  0  0  0  0  0  0  0  0
   11.0770   -5.4155   -4.6355 O   0  0  0  0  0  0  0  0  0  0  0  0
   12.7426   -4.1711   -5.8514 C   0  0  0  0  0  0  0  0  0  0  0  0
   12.0379   -3.9567   -6.9917 C   0  0  0  0  0  0  0  0  0  0  0  0
   10.7823   -4.6652   -7.4423 C   0  0  0  0  0  0  0  0  0  0  0  0
   12.4559   -2.9728   -7.8796 N   0  0  0  0  0  0  0  0  0  0  0  0
   13.3631   -1.9770   -7.5639 C   0  0  0  0  0  0  0  0  0  0  0  0
   13.4453   -0.8303   -8.5446 C   0  0  0  0  0  0  0  0  0  0  0  0
   14.1246   -2.0931   -6.4486 C   0  0  0  0  0  0  0  0  0  0  0  0
   15.0029   -0.9617   -6.0532 C   0  0  0  0  0  0  0  0  0  0  0  0
   14.8392    0.1906   -6.4278 O   0  0  0  0  0  0  0  0  0  0  0  0
   16.0093   -1.3694   -5.2510 O   0  0  0  0  0  0  0  0  0  0  0  0
   16.9216   -0.3325   -4.8516 C   0  0  0  0  0  0  0  0  0  0  0  0
   16.8805   -0.1149   -3.3889 C   0  0  0  0  0  0  0  0  0  0  0  0
   17.7308   -0.5723   -2.4046 C   0  0  0  0  0  0  0  0  0  0  0  0
   17.2421   -0.0055   -1.2718 N   0  0  0  0  0  0  0  0  0  0  0  0
   17.8195   -0.0473    0.0528 C   0  0  0  0  0  0  0  0  0  0  0  0
   18.2415    1.3446    0.5164 C   0  0  0  0  0  0  0  0  0  0  0  0
   17.1737    2.2753    0.7200 O   0  0  0  0  0  0  0  0  0  0  0  0
   16.1139    1.8320    1.5667 C   0  0  0  0  0  0  0  0  0  0  0  0
   16.6142    1.5991    2.9757 C   0  0  0  0  0  0  0  0  0  0  0  0
   15.5887    1.0258    3.7750 O   0  0  0  0  0  0  0  0  0  0  0  0
   16.0981    0.8475    5.0881 C   0  0  0  0  0  0  0  0  0  0  0  0
   15.0162    0.3247    6.0161 C   0  0  0  0  0  0  0  0  0  0  0  0
   15.5176    0.1258    7.3358 O   0  0  0  0  0  0  0  0  0  0  0  0
   15.9360    1.3422    7.9442 C   0  0  0  0  0  0  0  0  0  0  0  0
   16.4540    1.0512    9.3330 C   0  0  0  0  0  0  0  0  0  0  0  0
   16.9387    2.2757    9.8621 O   0  0  0  0  0  0  0  0  0  0  0  0
   17.4624    2.0957   11.1685 C   0  0  0  0  0  0  0  0  0  0  0  0
   17.8981    3.4583   11.6593 C   0  0  0  0  0  0  0  0  0  0  0  0
   18.3242    3.3605   13.0122 O   0  0  0  0  0  0  0  0  0  0  0  0
   18.8118    4.6004   13.5216 C   0  0  0  0  0  0  0  0  0  0  0  0
   17.7119    5.6467   13.6362 C   0  0  0  0  0  0  0  0  0  0  0  0
   18.2451    6.8963   14.1048 N   0  0  0  0  0  0  0  0  0  0  0  0
   18.7743    7.8941   13.3492 C   0  0  0  0  0  0  0  0  0  0  0  0
   19.1395    8.8415   14.2783 C   0  0  0  0  0  0  0  0  0  0  0  0
   19.6734   10.2100   14.0743 C   0  0  0  0  0  0  0  0  0  0  0  0
   18.7903   11.1851   14.6462 O   0  0  0  0  0  0  0  0  0  0  0  0
   17.6222   11.3497   13.9767 C   0  0  0  0  0  0  0  0  0  0  0  0
   17.4444   11.0617   12.8044 O   0  0  0  0  0  0  0  0  0  0  0  0
   16.5803   11.8261   14.9295 C   0  0  0  0  0  0  0  0  0  0  0  0
   15.2594   11.5754   14.7530 C   0  0  0  0  0  0  0  0  0  0  0  0
   14.6064   10.8727   13.5866 C   0  0  0  0  0  0  0  0  0  0  0  0
   14.3614   11.9701   15.7333 N   0  0  0  0  0  0  0  0  0  0  0  0
   14.7110   12.4068   16.9999 C   0  0  0  0  0  0  0  0  0  0  0  0
   13.5652   12.5802   17.9661 C   0  0  0  0  0  0  0  0  0  0  0  0
   16.0076   12.6790   17.2844 C   0  0  0  0  0  0  0  0  0  0  0  0
   16.4072   13.1524   18.6380 C   0  0  0  0  0  0  0  0  0  0  0  0
   15.6330   13.6558   19.4492 O   0  0  0  0  0  0  0  0  0  0  0  0
   17.7346   13.0023   18.8547 O   0  0  0  0  0  0  0  0  0  0  0  0
   18.2835   13.7487   19.9561 C   0  0  0  0  0  0  0  0  0  0  0  0
   18.7426   12.8418   21.0810 C   0  0  0  0  0  0  0  0  0  0  0  0
   17.0683   12.5883   16.1782 C   0  0  3  0  0  0  0  0  0  0  0  0
   17.5318   13.9818   15.7781 C   0  0  0  0  0  0  0  0  0  0  0  0
   18.8511   14.5754   15.7657 C   0  0  0  0  0  0  0  0  0  0  0  0
   20.1876   14.0574   16.1129 C   0  0  0  0  0  0  0  0  0  0  0  0
   21.3266   14.6122   15.4969 C   0  0  0  0  0  0  0  0  0  0  0  0
   22.6186   14.1926   15.8330 C   0  0  0  0  0  0  0  0  0  0  0  0
   22.8001   13.2103   16.8002 C   0  0  0  0  0  0  0  0  0  0  0  0
   21.6874   12.6524   17.4159 C   0  0  0  0  0  0  0  0  0  0  0  0
   21.9194   11.3281   18.7459 Br  0  0  0  0  0  0  0  0  0  0  0  0
   20.3974   13.0654   17.0728 C   0  0  0  0  0  0  0  0  0  0  0  0
   18.7692   15.8456   15.3291 N   0  0  0  0  0  0  0  0  0  0  0  0
   17.4634   16.0926   15.0249 O   0  0  0  0  0  0  0  0  0  0  0  0
   16.7210   14.9911   15.2717 C   0  0  0  0  0  0  0  0  0  0  0  0
   15.2869   15.1188   14.9341 C   0  0  0  0  0  0  0  0  0  0  0  0
   18.8269    8.3832   15.5345 N   0  0  0  0  0  0  0  0  0  0  0  0
   18.2789    7.1830   15.4127 N   0  0  0  0  0  0  0  0  0  0  0  0
   16.0873    0.6372   -1.5044 N   0  0  0  0  0  0  0  0  0  0  0  0
   15.8808    0.6195   -2.8127 N   0  0  0  0  0  0  0  0  0  0  0  0
   14.0252   -3.3545   -5.5721 C   0  0  3  0  0  0  0  0  0  0  0  0
   15.2672   -4.2180   -5.7386 C   0  0  0  0  0  0  0  0  0  0  0  0
   16.2132   -4.7015   -4.7561 C   0  0  0  0  0  0  0  0  0  0  0  0
   16.2590   -4.5733   -3.2901 C   0  0  0  0  0  0  0  0  0  0  0  0
   15.8033   -3.4376   -2.6142 C   0  0  0  0  0  0  0  0  0  0  0  0
   15.8365   -3.3592   -1.2171 C   0  0  0  0  0  0  0  0  0  0  0  0
   16.3297   -4.4217   -0.4684 C   0  0  0  0  0  0  0  0  0  0  0  0
   16.7884   -5.5595   -1.1240 C   0  0  0  0  0  0  0  0  0  0  0  0
   17.4048   -7.0320   -0.1113 Br  0  0  0  0  0  0  0  0  0  0  0  0
   16.7684   -5.6345   -2.5188 C   0  0  0  0  0  0  0  0  0  0  0  0
   17.1714   -5.4252   -5.3619 N   0  0  0  0  0  0  0  0  0  0  0  0
   16.8628   -5.4697   -6.6931 O   0  0  0  0  0  0  0  0  0  0  0  0
   15.7283   -4.7725   -6.9240 C   0  0  0  0  0  0  0  0  0  0  0  0
   15.2575   -4.7801   -8.3247 C   0  0  0  0  0  0  0  0  0  0  0  0
   12.9457   -7.6023   -1.3800 H   0  0  0  0  0  0  0  0  0  0  0  0
   14.2697   -7.4317   -2.5519 H   0  0  0  0  0  0  0  0  0  0  0  0
   12.6727   -7.9275   -3.1062 H   0  0  0  0  0  0  0  0  0  0  0  0
   13.3296   -5.2152   -1.8507 H   0  0  0  0  0  0  0  0  0  0  0  0
   11.7392   -5.6913   -2.4206 H   0  0  0  0  0  0  0  0  0  0  0  0
   10.4019   -5.4255   -6.7650 H   0  0  0  0  0  0  0  0  0  0  0  0
   10.9710   -5.1638   -8.4002 H   0  0  0  0  0  0  0  0  0  0  0  0
    9.9816   -3.9324   -7.5997 H   0  0  0  0  0  0  0  0  0  0  0  0
   11.8295   -2.7797   -8.6596 H   0  0  0  0  0  0  0  0  0  0  0  0
   12.8491   -1.0260   -9.4428 H   0  0  0  0  0  0  0  0  0  0  0  0
   14.4771   -0.6840   -8.8823 H   0  0  0  0  0  0  0  0  0  0  0  0
   13.0623    0.0963   -8.1063 H   0  0  0  0  0  0  0  0  0  0  0  0
   16.7511    0.6254   -5.3569 H   0  0  0  0  0  0  0  0  0  0  0  0
   17.9227   -0.6628   -5.1475 H   0  0  0  0  0  0  0  0  0  0  0  0
   18.6003   -1.2114   -2.4246 H   0  0  0  0  0  0  0  0  0  0  0  0
   18.6956   -0.7021    0.0121 H   0  0  0  0  0  0  0  0  0  0  0  0
   17.0889   -0.5247    0.7145 H   0  0  0  0  0  0  0  0  0  0  0  0
   18.9073    1.7972   -0.2267 H   0  0  0  0  0  0  0  0  0  0  0  0
   18.8299    1.2709    1.4365 H   0  0  0  0  0  0  0  0  0  0  0  0
   15.6169    0.9415    1.1701 H   0  0  0  0  0  0  0  0  0  0  0  0
   15.3403    2.6079    1.5772 H   0  0  0  0  0  0  0  0  0  0  0  0
   16.9538    2.5529    3.3979 H   0  0  0  0  0  0  0  0  0  0  0  0
   17.4675    0.9141    2.9820 H   0  0  0  0  0  0  0  0  0  0  0  0
   16.4688    1.8172    5.4332 H   0  0  0  0  0  0  0  0  0  0  0  0
   16.9484    0.1533    5.0814 H   0  0  0  0  0  0  0  0  0  0  0  0
   14.6565   -0.6418    5.6470 H   0  0  0  0  0  0  0  0  0  0  0  0
   14.1493    0.9950    6.0330 H   0  0  0  0  0  0  0  0  0  0  0  0
   15.1112    2.0643    7.9755 H   0  0  0  0  0  0  0  0  0  0  0  0
   16.7589    1.8047    7.3891 H   0  0  0  0  0  0  0  0  0  0  0  0
   17.2664    0.3169    9.2818 H   0  0  0  0  0  0  0  0  0  0  0  0
   15.6547    0.6442    9.9604 H   0  0  0  0  0  0  0  0  0  0  0  0
   18.3117    1.4041   11.1516 H   0  0  0  0  0  0  0  0  0  0  0  0
   16.6925    1.6848   11.8315 H   0  0  0  0  0  0  0  0  0  0  0  0
   17.0421    4.1351   11.5703 H   0  0  0  0  0  0  0  0  0  0  0  0
   18.7010    3.8546   11.0252 H   0  0  0  0  0  0  0  0  0  0  0  0
   19.6408    4.9510   12.8926 H   0  0  0  0  0  0  0  0  0  0  0  0
   19.2349    4.3963   14.5111 H   0  0  0  0  0  0  0  0  0  0  0  0
   16.9128    5.3128   14.3074 H   0  0  0  0  0  0  0  0  0  0  0  0
   17.2412    5.8559   12.6710 H   0  0  0  0  0  0  0  0  0  0  0  0
   18.8146    7.8696   12.2701 H   0  0  0  0  0  0  0  0  0  0  0  0
   19.8638   10.4273   13.0168 H   0  0  0  0  0  0  0  0  0  0  0  0
   20.6322   10.2965   14.5971 H   0  0  0  0  0  0  0  0  0  0  0  0
   15.2893   10.3916   12.8893 H   0  0  0  0  0  0  0  0  0  0  0  0
   13.9955   11.5877   13.0230 H   0  0  0  0  0  0  0  0  0  0  0  0
   13.9389   10.0848   13.9558 H   0  0  0  0  0  0  0  0  0  0  0  0
   13.3812   11.7455   15.5753 H   0  0  0  0  0  0  0  0  0  0  0  0
   12.6012   12.3766   17.4860 H   0  0  0  0  0  0  0  0  0  0  0  0
   13.5074   13.6120   18.3259 H   0  0  0  0  0  0  0  0  0  0  0  0
   13.6608   11.8919   18.8112 H   0  0  0  0  0  0  0  0  0  0  0  0
   17.5818   14.4973   20.3390 H   0  0  0  0  0  0  0  0  0  0  0  0
   19.1438   14.2997   19.5640 H   0  0  0  0  0  0  0  0  0  0  0  0
   17.9230   12.2237   21.4573 H   0  0  0  0  0  0  0  0  0  0  0  0
   19.1387   13.4416   21.9076 H   0  0  0  0  0  0  0  0  0  0  0  0
   19.5320   12.1646   20.7434 H   0  0  0  0  0  0  0  0  0  0  0  0
   17.8858   11.9999   16.5993 H   0  0  0  0  0  0  0  0  0  0  0  0
   21.2179   15.3965   14.7476 H   0  0  0  0  0  0  0  0  0  0  0  0
   23.4790   14.6439   15.3460 H   0  0  0  0  0  0  0  0  0  0  0  0
   23.8031   12.8929   17.0708 H   0  0  0  0  0  0  0  0  0  0  0  0
   19.5738   12.6081   17.5951 H   0  0  0  0  0  0  0  0  0  0  0  0
   15.0584   16.1142   14.5394 H   0  0  0  0  0  0  0  0  0  0  0  0
   14.6605   14.9687   15.8166 H   0  0  0  0  0  0  0  0  0  0  0  0
   15.0039   14.3953   14.1654 H   0  0  0  0  0  0  0  0  0  0  0  0
   13.9311   -2.9972   -4.5424 H   0  0  0  0  0  0  0  0  0  0  0  0
   15.4216   -2.5769   -3.1483 H   0  0  0  0  0  0  0  0  0  0  0  0
   15.4661   -2.4636   -0.7227 H   0  0  0  0  0  0  0  0  0  0  0  0
   16.3426   -4.3582    0.6161 H   0  0  0  0  0  0  0  0  0  0  0  0
   17.1329   -6.5357   -3.0099 H   0  0  0  0  0  0  0  0  0  0  0  0
   15.9110   -5.3814   -8.9639 H   0  0  0  0  0  0  0  0  0  0  0  0
   15.2399   -3.7678   -8.7358 H   0  0  0  0  0  0  0  0  0  0  0  0
   14.2544   -5.2104   -8.3918 H   0  0  0  0  0  0  0  0  0  0  0  0
  1  2  1  0  0  0  0
  1 88  1  0  0  0  0
  1 89  1  0  0  0  0
  1 90  1  0  0  0  0
  2  3  1  0  0  0  0
  2 91  1  0  0  0  0
  2 92  1  0  0  0  0
  3  4  1  0  0  0  0
  4  5  2  0  0  0  0
  4  6  1  0  0  0  0
  6  7  2  0  0  0  0
  6 74  1  0  0  0  0
  7  8  1  0  0  0  0
  7  9  1  0  0  0  0
  8 93  1  0  0  0  0
  8 94  1  0  0  0  0
  8 95  1  0  0  0  0
  9 10  1  0  0  0  0
  9 96  1  0  0  0  0
 10 11  1  0  0  0  0
 10 12  2  0  0  0  0
 11 97  1  0  0  0  0
 11 98  1  0  0  0  0
 11 99  1  0  0  0  0
 12 13  1  0  0  0  0
 12 74  1  0  0  0  0
 13 14  2  0  0  0  0
 13 15  1  0  0  0  0
 15 16  1  0  0  0  0
 16 17  1  0  0  0  0
 16100  1  0  0  0  0
 16101  1  0  0  0  0
 17 18  2  0  0  0  0
 17 73  1  0  0  0  0
 18 19  1  0  0  0  0
 18102  1  0  0  0  0
 19 20  1  0  0  0  0
 19 72  1  0  0  0  0
 20 21  1  0  0  0  0
 20103  1  0  0  0  0
 20104  1  0  0  0  0
 21 22  1  0  0  0  0
 21105  1  0  0  0  0
 21106  1  0  0  0  0
 22 23  1  0  0  0  0
 23 24  1  0  0  0  0
 23107  1  0  0  0  0
 23108  1  0  0  0  0
 24 25  1  0  0  0  0
 24109  1  0  0  0  0
 24110  1  0  0  0  0
 25 26  1  0  0  0  0
 26 27  1  0  0  0  0
 26111  1  0  0  0  0
 26112  1  0  0  0  0
 27 28  1  0  0  0  0
 27113  1  0  0  0  0
 27114  1  0  0  0  0
 28 29  1  0  0  0  0
 29 30  1  0  0  0  0
 29115  1  0  0  0  0
 29116  1  0  0  0  0
 30 31  1  0  0  0  0
 30117  1  0  0  0  0
 30118  1  0  0  0  0
 31 32  1  0  0  0  0
 32 33  1  0  0  0  0
 32119  1  0  0  0  0
 32120  1  0  0  0  0
 33 34  1  0  0  0  0
 33121  1  0  0  0  0
 33122  1  0  0  0  0
 34 35  1  0  0  0  0
 35 36  1  0  0  0  0
 35123  1  0  0  0  0
 35124  1  0  0  0  0
 36 37  1  0  0  0  0
 36125  1  0  0  0  0
 36126  1  0  0  0  0
 37 38  1  0  0  0  0
 37 71  1  0  0  0  0
 38 39  2  0  0  0  0
 38127  1  0  0  0  0
 39 40  1  0  0  0  0
 39 70  1  0  0  0  0
 40 41  1  0  0  0  0
 40128  1  0  0  0  0
 40129  1  0  0  0  0
 41 42  1  0  0  0  0
 42 43  2  0  0  0  0
 42 44  1  0  0  0  0
 44 45  2  0  0  0  0
 44 56  1  0  0  0  0
 45 46  1  0  0  0  0
 45 47  1  0  0  0  0
 46130  1  0  0  0  0
 46131  1  0  0  0  0
 46132  1  0  0  0  0
 47 48  1  0  0  0  0
 47133  1  0  0  0  0
 48 49  1  0  0  0  0
 48 50  2  0  0  0  0
 49134  1  0  0  0  0
 49135  1  0  0  0  0
 49136  1  0  0  0  0
 50 51  1  0  0  0  0
 50 56  1  0  0  0  0
 51 52  2  0  0  0  0
 51 53  1  0  0  0  0
 53 54  1  0  0  0  0
 54 55  1  0  0  0  0
 54137  1  0  0  0  0
 54138  1  0  0  0  0
 55139  1  0  0  0  0
 55140  1  0  0  0  0
 55141  1  0  0  0  0
 56 57  1  0  0  0  0
 56142  1  0  0  0  0
 57 58  1  0  0  0  0
 57 68  2  0  0  0  0
 58 59  1  0  0  0  0
 58 66  2  0  0  0  0
 59 60  1  0  0  0  0
 59 65  2  0  0  0  0
 60 61  2  0  0  0  0
 60143  1  0  0  0  0
 61 62  1  0  0  0  0
 61144  1  0  0  0  0
 62 63  2  0  0  0  0
 62145  1  0  0  0  0
 63 64  1  0  0  0  0
 63 65  1  0  0  0  0
 65146  1  0  0  0  0
 66 67  1  0  0  0  0
 67 68  1  0  0  0  0
 68 69  1  0  0  0  0
 69147  1  0  0  0  0
 69148  1  0  0  0  0
 69149  1  0  0  0  0
 70 71  2  0  0  0  0
 72 73  2  0  0  0  0
 74 75  1  0  0  0  0
 74150  1  0  0  0  0
 75 76  1  0  0  0  0
 75 86  2  0  0  0  0
 76 77  1  0  0  0  0
 76 84  2  0  0  0  0
 77 78  1  0  0  0  0
 77 83  2  0  0  0  0
 78 79  2  0  0  0  0
 78151  1  0  0  0  0
 79 80  1  0  0  0  0
 79152  1  0  0  0  0
 80 81  2  0  0  0  0
 80153  1  0  0  0  0
 81 82  1  0  0  0  0
 81 83  1  0  0  0  0
 83154  1  0  0  0  0
 84 85  1  0  0  0  0
 85 86  1  0  0  0  0
 86 87  1  0  0  0  0
 87155  1  0  0  0  0
 87156  1  0  0  0  0
 87157  1  0  0  0  0
M  END
>  <Energy>
132.303

$$$$