181
 OpenBabel03292022023D

 65 69  0  0  1  0  0  0  0  0999 V2000
    1.1029    0.2452   -0.7994 C   0  0  0  0  0  0  0  0  0  0  0  0
    2.4249   -0.2693   -1.3584 C   0  0  0  0  0  0  0  0  0  0  0  0
    3.5799    0.0613   -0.4047 C   0  0  1  0  0  0  0  0  0  0  0  0
    4.2399   -1.2791    0.2109 C   0  0  0  0  0  0  0  0  0  0  0  0
    5.5923   -1.2115    0.8829 N   0  0  0  0  0  0  0  0  0  0  0  0
    5.4743   -1.0756    2.3390 C   0  0  0  0  0  0  0  0  0  0  0  0
    6.5427   -0.1769    0.2948 C   0  0  1  0  0  0  0  0  0  0  0  0
    7.2661   -0.8594   -0.9363 C   0  0  0  0  0  0  0  0  0  0  0  0
    7.2750   -0.3877   -2.3936 C   0  0  0  0  0  0  0  0  0  0  0  0
    6.9860    0.8440   -2.9882 C   0  0  0  0  0  0  0  0  0  0  0  0
    7.3721    0.7731   -4.3074 N   0  0  0  0  0  0  0  0  0  0  0  0
    7.5500   -0.5323   -4.6814 C   0  0  0  0  0  0  0  0  0  0  0  0
    7.7330   -1.0848   -5.9544 C   0  0  0  0  0  0  0  0  0  0  0  0
    7.8417   -2.4750   -6.0480 C   0  0  0  0  0  0  0  0  0  0  0  0
    7.8066   -3.2679   -4.9032 C   0  0  0  0  0  0  0  0  0  0  0  0
    7.6665   -2.6884   -3.6337 C   0  0  0  0  0  0  0  0  0  0  0  0
    7.5159   -1.2923   -3.5156 C   0  0  0  0  0  0  0  0  0  0  0  0
    6.3790    2.0428   -2.4564 C   0  0  0  0  0  0  0  0  0  0  0  0
    7.2046    3.0357   -2.3140 N   0  0  0  0  0  0  0  0  0  0  0  0
    6.8345    4.2104   -1.7442 N   0  0  0  0  0  0  0  0  0  0  0  0
    7.7696    4.7813   -0.8244 C   0  0  0  0  0  0  0  0  0  0  0  0
    9.0519    4.2548   -0.6079 C   0  0  0  0  0  0  0  0  0  0  0  0
    9.8976    4.8016    0.3642 C   0  0  0  0  0  0  0  0  0  0  0  0
    9.4876    5.9051    1.1094 C   0  0  0  0  0  0  0  0  0  0  0  0
    8.2404    6.4750    0.8673 C   0  0  0  0  0  0  0  0  0  0  0  0
    7.3943    5.9235   -0.1006 C   0  0  0  0  0  0  0  0  0  0  0  0
    4.8687    1.9264   -2.0909 C   0  0  0  0  0  0  0  0  0  0  0  0
    4.7598    0.8081   -1.0488 C   0  0  1  0  0  0  0  0  0  0  0  0
    5.6836    1.0636    0.1421 C   0  0  2  0  0  0  0  0  0  0  0  0
    5.9743    2.4777    0.6118 C   0  0  0  0  0  0  0  0  0  0  0  0
    5.2680    3.4291    0.2838 O   0  0  0  0  0  0  0  0  0  0  0  0
    6.7962    2.4828    1.6975 O   0  0  0  0  0  0  0  0  0  0  0  0
    6.5655    3.5836    2.5866 C   0  0  0  0  0  0  0  0  0  0  0  0
    0.2831    0.0269   -1.4882 H   0  0  0  0  0  0  0  0  0  0  0  0
    1.1412    1.3296   -0.6475 H   0  0  0  0  0  0  0  0  0  0  0  0
    0.8761   -0.2263    0.1633 H   0  0  0  0  0  0  0  0  0  0  0  0
    2.5840    0.1792   -2.3438 H   0  0  0  0  0  0  0  0  0  0  0  0
    2.3377   -1.3513   -1.5091 H   0  0  0  0  0  0  0  0  0  0  0  0
    3.1769    0.6545    0.4272 H   0  0  0  0  0  0  0  0  0  0  0  0
    4.3687   -1.9910   -0.6152 H   0  0  0  0  0  0  0  0  0  0  0  0
    3.5135   -1.7481    0.8865 H   0  0  0  0  0  0  0  0  0  0  0  0
    5.1503   -2.0259    2.7748 H   0  0  0  0  0  0  0  0  0  0  0  0
    4.7599   -0.3028    2.6461 H   0  0  0  0  0  0  0  0  0  0  0  0
    6.4419   -0.8398    2.7999 H   0  0  0  0  0  0  0  0  0  0  0  0
    7.3449    0.0204    1.0167 H   0  0  0  0  0  0  0  0  0  0  0  0
    6.9048   -1.8987   -0.9807 H   0  0  0  0  0  0  0  0  0  0  0  0
    8.3249   -0.9740   -0.6565 H   0  0  0  0  0  0  0  0  0  0  0  0
    7.3681    1.5595   -4.9417 H   0  0  0  0  0  0  0  0  0  0  0  0
    7.7614   -0.4666   -6.8459 H   0  0  0  0  0  0  0  0  0  0  0  0
    7.9490   -2.9406   -7.0248 H   0  0  0  0  0  0  0  0  0  0  0  0
    7.8755   -4.3487   -4.9974 H   0  0  0  0  0  0  0  0  0  0  0  0
    7.6274   -3.3277   -2.7568 H   0  0  0  0  0  0  0  0  0  0  0  0
    5.9011    4.2674   -1.3175 H   0  0  0  0  0  0  0  0  0  0  0  0
    9.3877    3.3852   -1.1666 H   0  0  0  0  0  0  0  0  0  0  0  0
   10.8729    4.3561    0.5448 H   0  0  0  0  0  0  0  0  0  0  0  0
   10.1405    6.3221    1.8717 H   0  0  0  0  0  0  0  0  0  0  0  0
    7.9164    7.3393    1.4409 H   0  0  0  0  0  0  0  0  0  0  0  0
    6.4150    6.3667   -0.2605 H   0  0  0  0  0  0  0  0  0  0  0  0
    4.3454    1.6239   -3.0093 H   0  0  0  0  0  0  0  0  0  0  0  0
    4.4267    2.8703   -1.7874 H   0  0  0  0  0  0  0  0  0  0  0  0
    5.0978   -0.0307   -1.6586 H   0  0  0  0  0  0  0  0  0  0  0  0
    5.0193    0.9849    1.0190 H   0  0  0  0  0  0  0  0  0  0  0  0
    7.4970    3.8243    3.1002 H   0  0  0  0  0  0  0  0  0  0  0  0
    5.8208    3.2773    3.3290 H   0  0  0  0  0  0  0  0  0  0  0  0
    6.2038    4.4865    2.0862 H   0  0  0  0  0  0  0  0  0  0  0  0
  1  2  1  0  0  0  0
  1 34  1  0  0  0  0
  1 35  1  0  0  0  0
  1 36  1  0  0  0  0
  2 37  1  0  0  0  0
  2 38  1  0  0  0  0
  3  4  1  0  0  0  0
  3 28  1  0  0  0  0
  3  2  1  0  0  0  0
  3 39  1  1  0  0  0
  4  5  1  0  0  0  0
  4 40  1  0  0  0  0
  4 41  1  0  0  0  0
  5  6  1  0  0  0  0
  5  7  1  0  0  0  0
  6 42  1  0  0  0  0
  6 43  1  0  0  0  0
  6 44  1  0  0  0  0
  7  8  1  0  0  0  0
  7 29  1  0  0  0  0
  7 45  1  1  0  0  0
  8  9  1  0  0  0  0
  8 46  1  0  0  0  0
  8 47  1  0  0  0  0
  9 10  2  0  0  0  0
  9 17  1  0  0  0  0
 10 11  1  0  0  0  0
 10 18  1  0  0  0  0
 11 12  1  0  0  0  0
 11 48  1  0  0  0  0
 12 13  1  0  0  0  0
 12 17  2  0  0  0  0
 13 14  2  0  0  0  0
 13 49  1  0  0  0  0
 14 15  1  0  0  0  0
 14 50  1  0  0  0  0
 15 16  2  0  0  0  0
 15 51  1  0  0  0  0
 16 17  1  0  0  0  0
 16 52  1  0  0  0  0
 18 19  2  0  0  0  0
 18 27  1  0  0  0  0
 19 20  1  0  0  0  0
 20 21  1  0  0  0  0
 20 53  1  0  0  0  0
 21 22  1  0  0  0  0
 21 26  2  0  0  0  0
 22 23  2  0  0  0  0
 22 54  1  0  0  0  0
 23 24  1  0  0  0  0
 23 55  1  0  0  0  0
 24 25  2  0  0  0  0
 24 56  1  0  0  0  0
 25 26  1  0  0  0  0
 25 57  1  0  0  0  0
 26 58  1  0  0  0  0
 27 28  1  0  0  0  0
 27 59  1  0  0  0  0
 27 60  1  0  0  0  0
 28 29  1  0  0  0  0
 28 61  1  6  0  0  0
 29 30  1  0  0  0  0
 29 62  1  1  0  0  0
 30 31  2  0  0  0  0
 30 32  1  0  0  0  0
 32 33  1  0  0  0  0
 33 63  1  0  0  0  0
 33 64  1  0  0  0  0
 33 65  1  0  0  0  0
M  END
>  <Energy>
187.548

$$$$