182
 OpenBabel03292022023D

 64 68  0  0  1  0  0  0  0  0999 V2000
    2.1207    1.1866    1.6769 C   0  0  0  0  0  0  0  0  0  0  0  0
    3.0507    0.7717    0.5420 C   0  0  0  0  0  0  0  0  0  0  0  0
    3.8360    1.9501   -0.0682 C   0  0  1  0  0  0  0  0  0  0  0  0
    4.6536    2.7226    1.0979 C   0  0  0  0  0  0  0  0  0  0  0  0
    5.9375    3.4445    0.8146 N   0  0  0  0  0  0  0  0  0  0  0  0
    5.7625    4.8988    0.7159 C   0  0  0  0  0  0  0  0  0  0  0  0
    6.7225    2.8950   -0.3497 C   0  0  1  0  0  0  0  0  0  0  0  0
    7.6232    1.6857    0.1915 C   0  0  0  0  0  0  0  0  0  0  0  0
    7.4772    0.1863   -0.1307 C   0  0  0  0  0  0  0  0  0  0  0  0
    7.0651   -0.4469   -1.3028 C   0  0  0  0  0  0  0  0  0  0  0  0
    7.3236   -1.7886   -1.1918 N   0  0  0  0  0  0  0  0  0  0  0  0
    7.5560   -2.1105    0.1151 C   0  0  0  0  0  0  0  0  0  0  0  0
    7.6624   -3.3719    0.7137 C   0  0  0  0  0  0  0  0  0  0  0  0
    7.8325   -3.4147    2.1004 C   0  0  0  0  0  0  0  0  0  0  0  0
    7.9201   -2.2397    2.8397 C   0  0  0  0  0  0  0  0  0  0  0  0
    7.8562   -0.9833    2.2117 C   0  0  0  0  0  0  0  0  0  0  0  0
    7.6563   -0.9063    0.8154 C   0  0  0  0  0  0  0  0  0  0  0  0
    6.4092    0.1089   -2.4613 C   0  0  0  0  0  0  0  0  0  0  0  0
    7.2280    0.3115   -3.4429 N   0  0  0  0  0  0  0  0  0  0  0  0
    6.9012    0.9437   -4.5840 N   0  0  0  0  0  0  0  0  0  0  0  0
    7.8685    1.8243   -5.1324 C   0  0  0  0  0  0  0  0  0  0  0  0
    9.1810    1.8630   -4.6448 C   0  0  0  0  0  0  0  0  0  0  0  0
   10.0800    2.8181   -5.1245 C   0  0  0  0  0  0  0  0  0  0  0  0
    9.6609    3.6891   -6.1153 C   0  0  0  0  0  0  0  0  0  0  0  0
   10.8160    5.0170   -6.7873 Br  0  0  0  0  0  0  0  0  0  0  0  0
    8.3657    3.5640   -6.5863 C   0  0  0  0  0  0  0  0  0  0  0  0
    7.4654    2.6646   -6.1110 N   0  0  0  0  0  0  0  0  0  0  0  0
    4.9076    0.4626   -2.2471 C   0  0  0  0  0  0  0  0  0  0  0  0
    4.8832    1.4900   -1.1048 C   0  0  1  0  0  0  0  0  0  0  0  0
    5.6762    2.7388   -1.4506 C   0  0  2  0  0  0  0  0  0  0  0  0
    5.8400    3.2338   -2.8777 C   0  0  0  0  0  0  0  0  0  0  0  0
    5.1466    2.8367   -3.8170 O   0  0  0  0  0  0  0  0  0  0  0  0
    6.5349    4.4077   -2.9053 O   0  0  0  0  0  0  0  0  0  0  0  0
    6.1290    5.2611   -3.9805 C   0  0  0  0  0  0  0  0  0  0  0  0
    1.5591    0.3208    2.0400 H   0  0  0  0  0  0  0  0  0  0  0  0
    1.4085    1.9470    1.3448 H   0  0  0  0  0  0  0  0  0  0  0  0
    2.6762    1.5866    2.5329 H   0  0  0  0  0  0  0  0  0  0  0  0
    2.4648    0.2791   -0.2411 H   0  0  0  0  0  0  0  0  0  0  0  0
    3.7501    0.0211    0.9336 H   0  0  0  0  0  0  0  0  0  0  0  0
    3.1289    2.6483   -0.5339 H   0  0  0  0  0  0  0  0  0  0  0  0
    4.9279    1.9763    1.8541 H   0  0  0  0  0  0  0  0  0  0  0  0
    3.9572    3.4048    1.6034 H   0  0  0  0  0  0  0  0  0  0  0  0
    5.4572    5.3113    1.6822 H   0  0  0  0  0  0  0  0  0  0  0  0
    5.0198    5.1998   -0.0304 H   0  0  0  0  0  0  0  0  0  0  0  0
    6.7091    5.3911    0.4591 H   0  0  0  0  0  0  0  0  0  0  0  0
    7.4580    3.6506   -0.6547 H   0  0  0  0  0  0  0  0  0  0  0  0
    7.6071    1.7533    1.2896 H   0  0  0  0  0  0  0  0  0  0  0  0
    8.6634    1.9317   -0.0654 H   0  0  0  0  0  0  0  0  0  0  0  0
    7.1978   -2.4565   -1.9404 H   0  0  0  0  0  0  0  0  0  0  0  0
    7.5840   -4.2903    0.1368 H   0  0  0  0  0  0  0  0  0  0  0  0
    7.8851   -4.3795    2.6013 H   0  0  0  0  0  0  0  0  0  0  0  0
    8.0278   -2.2944    3.9211 H   0  0  0  0  0  0  0  0  0  0  0  0
    7.9064   -0.0816    2.8127 H   0  0  0  0  0  0  0  0  0  0  0  0
    5.9663    1.3137   -4.7808 H   0  0  0  0  0  0  0  0  0  0  0  0
    9.4943    1.1863   -3.8555 H   0  0  0  0  0  0  0  0  0  0  0  0
   11.0822    2.8746   -4.7101 H   0  0  0  0  0  0  0  0  0  0  0  0
    7.9846    4.2140   -7.3684 H   0  0  0  0  0  0  0  0  0  0  0  0
    4.3967   -0.4543   -1.9263 H   0  0  0  0  0  0  0  0  0  0  0  0
    4.4180    0.7839   -3.1646 H   0  0  0  0  0  0  0  0  0  0  0  0
    5.4075    0.9080   -0.3607 H   0  0  0  0  0  0  0  0  0  0  0  0
    4.9428    3.5448   -1.2717 H   0  0  0  0  0  0  0  0  0  0  0  0
    6.5910    6.2411   -3.8355 H   0  0  0  0  0  0  0  0  0  0  0  0
    5.0411    5.3993   -3.9721 H   0  0  0  0  0  0  0  0  0  0  0  0
    6.4466    4.8596   -4.9429 H   0  0  0  0  0  0  0  0  0  0  0  0
  1  2  1  0  0  0  0
  1 35  1  0  0  0  0
  1 36  1  0  0  0  0
  1 37  1  0  0  0  0
  2  3  1  0  0  0  0
  2 38  1  0  0  0  0
  2 39  1  0  0  0  0
  3  4  1  0  0  0  0
  3 29  1  0  0  0  0
  3 40  1  6  0  0  0
  4  5  1  0  0  0  0
  4 41  1  0  0  0  0
  4 42  1  0  0  0  0
  5  6  1  0  0  0  0
  5  7  1  0  0  0  0
  6 43  1  0  0  0  0
  6 44  1  0  0  0  0
  6 45  1  0  0  0  0
  7  8  1  0  0  0  0
  7 30  1  0  0  0  0
  7 46  1  6  0  0  0
  8  9  1  0  0  0  0
  8 47  1  0  0  0  0
  8 48  1  0  0  0  0
  9 10  2  0  0  0  0
  9 17  1  0  0  0  0
 10 11  1  0  0  0  0
 10 18  1  0  0  0  0
 11 12  1  0  0  0  0
 11 49  1  0  0  0  0
 12 13  1  0  0  0  0
 12 17  2  0  0  0  0
 13 14  2  0  0  0  0
 13 50  1  0  0  0  0
 14 15  1  0  0  0  0
 14 51  1  0  0  0  0
 15 16  2  0  0  0  0
 15 52  1  0  0  0  0
 16 17  1  0  0  0  0
 16 53  1  0  0  0  0
 18 19  2  0  0  0  0
 18 28  1  0  0  0  0
 19 20  1  0  0  0  0
 20 21  1  0  0  0  0
 20 54  1  0  0  0  0
 21 22  1  0  0  0  0
 21 27  2  0  0  0  0
 22 23  2  0  0  0  0
 22 55  1  0  0  0  0
 23 24  1  0  0  0  0
 23 56  1  0  0  0  0
 24 25  1  0  0  0  0
 24 26  2  0  0  0  0
 26 27  1  0  0  0  0
 26 57  1  0  0  0  0
 28 29  1  0  0  0  0
 28 58  1  0  0  0  0
 28 59  1  0  0  0  0
 29 30  1  0  0  0  0
 29 60  1  1  0  0  0
 30 31  1  0  0  0  0
 30 61  1  1  0  0  0
 31 32  2  0  0  0  0
 31 33  1  0  0  0  0
 33 34  1  0  0  0  0
 34 62  1  0  0  0  0
 34 63  1  0  0  0  0
 34 64  1  0  0  0  0
M  END
>  <Energy>
181.298

$$$$