101879129
  -OEChem-03242010103D

 81 85  0     1  0  0  0  0  0999 V2000
   -5.1174    1.3707    0.0376 O   0  0  0  0  0  0  0  0  0  0  0  0
   -4.2832    0.7547   -2.5396 O   0  0  0  0  0  0  0  0  0  0  0  0
    4.3895   -1.7404    0.6355 O   0  0  0  0  0  0  0  0  0  0  0  0
    0.5816   -1.1359   -2.6993 O   0  0  0  0  0  0  0  0  0  0  0  0
    0.7493    2.9430    0.7829 N   0  0  2  0  0  0  0  0  0  0  0  0
    2.4940    1.6047    2.7225 N   0  0  0  0  0  0  0  0  0  0  0  0
    1.9155    0.4590    3.1175 N   0  0  0  0  0  0  0  0  0  0  0  0
    2.7217   -0.5341    2.7587 N   0  0  0  0  0  0  0  0  0  0  0  0
    2.0459   -1.4894   -0.8944 N   0  0  0  0  0  0  0  0  0  0  0  0
    0.9612    3.3605   -0.6085 C   0  0  0  0  0  0  0  0  0  0  0  0
   -0.6685    3.1019    1.1518 C   0  0  0  0  0  0  0  0  0  0  0  0
    0.2220    2.4098   -1.5557 C   0  0  0  0  0  0  0  0  0  0  0  0
   -1.6180    2.4491    0.1735 C   0  0  0  0  0  0  0  0  0  0  0  0
   -1.2036    2.1590   -1.1378 C   0  0  0  0  0  0  0  0  0  0  0  0
    1.6006    3.7115    1.6905 C   0  0  0  0  0  0  0  0  0  0  0  0
    1.8310    2.9334    2.9855 C   0  0  0  0  0  0  0  0  0  0  0  0
   -2.9419    2.1886    0.5526 C   0  0  0  0  0  0  0  0  0  0  0  0
   -2.1069    1.5792   -2.0381 C   0  0  0  0  0  0  0  0  0  0  0  0
   -3.8366    1.6202   -0.3539 C   0  0  0  0  0  0  0  0  0  0  0  0
   -3.4189    1.3138   -1.6471 C   0  0  0  0  0  0  0  0  0  0  0  0
   -3.7024   -2.9706    1.7323 C   0  0  0  0  0  0  0  0  0  0  0  0
   -2.5378   -2.5757    0.8883 C   0  0  0  0  0  0  0  0  0  0  0  0
    3.6835    1.3780    2.1014 C   0  0  0  0  0  0  0  0  0  0  0  0
   -4.0273   -4.4882    1.5731 C   0  0  0  0  0  0  0  0  0  0  0  0
   -4.9833   -2.1715    1.3387 C   0  0  0  0  0  0  0  0  0  0  0  0
   -3.5253   -2.7418    3.2701 C   0  0  0  0  0  0  0  0  0  0  0  0
    3.8091    0.0119    2.1352 C   0  0  0  0  0  0  0  0  0  0  0  0
   -1.3933   -2.0446    1.4829 C   0  0  0  0  0  0  0  0  0  0  0  0
   -2.5935   -2.7378   -0.4961 C   0  0  0  0  0  0  0  0  0  0  0  0
    4.8940   -0.8312    1.6173 C   0  0  0  0  0  0  0  0  0  0  0  0
   -0.3043   -1.6755    0.6932 C   0  0  0  0  0  0  0  0  0  0  0  0
   -1.5046   -2.3687   -1.2857 C   0  0  0  0  0  0  0  0  0  0  0  0
   -0.3600   -1.8374   -0.6911 C   0  0  0  0  0  0  0  0  0  0  0  0
   -6.0706    2.4128   -0.1624 C   0  0  0  0  0  0  0  0  0  0  0  0
   -3.7761    0.4719   -3.8423 C   0  0  0  0  0  0  0  0  0  0  0  0
    0.8004   -1.4431   -1.5323 C   0  0  0  0  0  0  0  0  0  0  0  0
    4.4555   -1.3295   -0.6663 C   0  0  0  0  0  0  0  0  0  0  0  0
    3.3002   -1.2002   -1.4370 C   0  0  0  0  0  0  0  0  0  0  0  0
    5.7010   -1.0374   -1.2222 C   0  0  0  0  0  0  0  0  0  0  0  0
    3.3903   -0.7787   -2.7636 C   0  0  0  0  0  0  0  0  0  0  0  0
    5.7912   -0.6156   -2.5488 C   0  0  0  0  0  0  0  0  0  0  0  0
    4.6359   -0.4863   -3.3194 C   0  0  0  0  0  0  0  0  0  0  0  0
    2.0266    3.3268   -0.8683 H   0  0  0  0  0  0  0  0  0  0  0  0
    0.6209    4.3936   -0.7617 H   0  0  0  0  0  0  0  0  0  0  0  0
   -0.9407    4.1641    1.2171 H   0  0  0  0  0  0  0  0  0  0  0  0
   -0.8380    2.6472    2.1346 H   0  0  0  0  0  0  0  0  0  0  0  0
    0.7469    1.4486   -1.5828 H   0  0  0  0  0  0  0  0  0  0  0  0
    0.2450    2.8321   -2.5673 H   0  0  0  0  0  0  0  0  0  0  0  0
    1.1815    4.7014    1.9102 H   0  0  0  0  0  0  0  0  0  0  0  0
    2.5809    3.8928    1.2310 H   0  0  0  0  0  0  0  0  0  0  0  0
    0.9109    2.7214    3.5388 H   0  0  0  0  0  0  0  0  0  0  0  0
    2.5245    3.4645    3.6468 H   0  0  0  0  0  0  0  0  0  0  0  0
   -3.2752    2.4294    1.5595 H   0  0  0  0  0  0  0  0  0  0  0  0
   -1.7221    1.3567   -3.0280 H   0  0  0  0  0  0  0  0  0  0  0  0
   -5.8364   -2.4512    1.9676 H   0  0  0  0  0  0  0  0  0  0  0  0
   -4.8187   -1.0946    1.4566 H   0  0  0  0  0  0  0  0  0  0  0  0
   -5.2758   -2.3501    0.2982 H   0  0  0  0  0  0  0  0  0  0  0  0
   -3.3607   -1.6831    3.5023 H   0  0  0  0  0  0  0  0  0  0  0  0
   -3.1601   -5.1023    1.8434 H   0  0  0  0  0  0  0  0  0  0  0  0
   -4.3037   -4.7416    0.5438 H   0  0  0  0  0  0  0  0  0  0  0  0
   -4.8642   -4.7865    2.2152 H   0  0  0  0  0  0  0  0  0  0  0  0
   -4.4202   -3.0551    3.8215 H   0  0  0  0  0  0  0  0  0  0  0  0
   -2.6844   -3.3215    3.6684 H   0  0  0  0  0  0  0  0  0  0  0  0
    4.3099    2.1677    1.7117 H   0  0  0  0  0  0  0  0  0  0  0  0
   -1.3005   -1.8885    2.5520 H   0  0  0  0  0  0  0  0  0  0  0  0
   -3.4720   -3.1486   -0.9853 H   0  0  0  0  0  0  0  0  0  0  0  0
    0.5485   -1.2308    1.1925 H   0  0  0  0  0  0  0  0  0  0  0  0
   -1.5671   -2.5058   -2.3620 H   0  0  0  0  0  0  0  0  0  0  0  0
    5.7270   -0.2228    1.2468 H   0  0  0  0  0  0  0  0  0  0  0  0
    5.2960   -1.4395    2.4355 H   0  0  0  0  0  0  0  0  0  0  0  0
   -7.0431    2.0597    0.1913 H   0  0  0  0  0  0  0  0  0  0  0  0
   -6.1536    2.6606   -1.2253 H   0  0  0  0  0  0  0  0  0  0  0  0
   -5.7915    3.3026    0.4107 H   0  0  0  0  0  0  0  0  0  0  0  0
   -4.5969    0.0323   -4.4186 H   0  0  0  0  0  0  0  0  0  0  0  0
   -2.9756   -0.2752   -3.8105 H   0  0  0  0  0  0  0  0  0  0  0  0
   -3.4747    1.3857   -4.3657 H   0  0  0  0  0  0  0  0  0  0  0  0
    2.0849   -1.8169    0.0667 H   0  0  0  0  0  0  0  0  0  0  0  0
    6.6142   -1.1519   -0.6446 H   0  0  0  0  0  0  0  0  0  0  0  0
    2.5472   -0.6458   -3.4257 H   0  0  0  0  0  0  0  0  0  0  0  0
    6.7612   -0.3922   -2.9830 H   0  0  0  0  0  0  0  0  0  0  0  0
    4.7075   -0.1572   -4.3521 H   0  0  0  0  0  0  0  0  0  0  0  0
  1 19  1  0  0  0  0
  1 34  1  0  0  0  0
  2 20  1  0  0  0  0
  2 35  1  0  0  0  0
  3 30  1  0  0  0  0
  3 37  1  0  0  0  0
  4 36  2  0  0  0  0
  5 10  1  0  0  0  0
  5 11  1  0  0  0  0
  5 15  1  0  0  0  0
  6  7  1  0  0  0  0
  6 16  1  0  0  0  0
  6 23  1  0  0  0  0
  7  8  2  0  0  0  0
  8 27  1  0  0  0  0
  9 36  1  0  0  0  0
  9 38  1  0  0  0  0
  9 77  1  0  0  0  0
 10 12  1  0  0  0  0
 10 43  1  0  0  0  0
 10 44  1  0  0  0  0
 11 13  1  0  0  0  0
 11 45  1  0  0  0  0
 11 46  1  0  0  0  0
 12 14  1  0  0  0  0
 12 47  1  0  0  0  0
 12 48  1  0  0  0  0
 13 14  1  0  0  0  0
 13 17  2  0  0  0  0
 14 18  2  0  0  0  0
 15 16  1  0  0  0  0
 15 49  1  0  0  0  0
 15 50  1  0  0  0  0
 16 51  1  0  0  0  0
 16 52  1  0  0  0  0
 17 19  1  0  0  0  0
 17 53  1  0  0  0  0
 18 20  1  0  0  0  0
 18 54  1  0  0  0  0
 19 20  2  0  0  0  0
 21 22  1  0  0  0  0
 21 24  1  0  0  0  0
 21 25  1  0  0  0  0
 21 26  1  0  0  0  0
 22 28  2  0  0  0  0
 22 29  1  0  0  0  0
 23 27  2  0  0  0  0
 23 64  1  0  0  0  0
 24 59  1  0  0  0  0
 24 60  1  0  0  0  0
 24 61  1  0  0  0  0
 25 55  1  0  0  0  0
 25 56  1  0  0  0  0
 25 57  1  0  0  0  0
 26 58  1  0  0  0  0
 26 62  1  0  0  0  0
 26 63  1  0  0  0  0
 27 30  1  0  0  0  0
 28 31  1  0  0  0  0
 28 65  1  0  0  0  0
 29 32  2  0  0  0  0
 29 66  1  0  0  0  0
 30 69  1  0  0  0  0
 30 70  1  0  0  0  0
 31 33  2  0  0  0  0
 31 67  1  0  0  0  0
 32 33  1  0  0  0  0
 32 68  1  0  0  0  0
 33 36  1  0  0  0  0
 34 71  1  0  0  0  0
 34 72  1  0  0  0  0
 34 73  1  0  0  0  0
 35 74  1  0  0  0  0
 35 75  1  0  0  0  0
 35 76  1  0  0  0  0
 37 38  1  0  0  0  0
 37 39  2  0  0  0  0
 38 40  2  0  0  0  0
 39 41  1  0  0  0  0
 39 78  1  0  0  0  0
 40 42  1  0  0  0  0
 40 79  1  0  0  0  0
 41 42  2  0  0  0  0
 41 80  1  0  0  0  0
 42 81  1  0  0  0  0
M  END
> <PUBCHEM_COMPOUND_CID>
101879129

> <PUBCHEM_CONFORMER_RMSD>
1.4

> <PUBCHEM_CONFORMER_DIVERSEORDER>
1
164
157
96
93
100
124
3
80
172
97
88
5
83
55
159
115
24
117
47
20
92
123
2
166
69
81
95
39
19
132
38
7
144
72
112
26
61
89
73
62
178
74
99
156
12
85
29
6
101
169
104
90
22
116
120
16
102
65
152
155
13
56
147
105
21
30
71
148
28
135
54
128
59
181
4
32
78
51
58
182
143
111
53
127
170
44
42
167
79
142
17
108
33
23
60
9
109
106
31
48
57
91
110
139
66
35
140
173
10
183
68
86
151
11
37
87
8
103
160
15
134
180
36
27
179
150
171
50
154
163
174
121
14
94
118
122
52
84
168
126
40
177
162
184
98
130
133
25
82
125
119
149
141
114
129
64
77
34
158
165
107
49
45
161
70
75
138
76
113
67
18
153
145
136
175
43
46
131
63
176
146
41
137

> <PUBCHEM_MMFF94_PARTIAL_CHARGES>
51
1 -0.36
10 0.27
11 0.41
12 0.14
13 -0.14
14 -0.14
15 0.27
16 0.26
17 -0.15
18 -0.15
19 0.08
2 -0.36
20 0.08
21 0.14
22 -0.14
23 -0.3
27 0.05
28 -0.15
29 -0.15
3 -0.36
30 0.46
31 -0.15
32 -0.15
33 0.09
34 0.28
35 0.28
36 0.54
37 0.08
38 0.12
39 -0.15
4 -0.57
40 -0.15
41 -0.15
42 -0.15
5 -0.81
53 0.15
54 0.15
6 0.31
64 0.15
65 0.15
66 0.15
67 0.15
68 0.15
7 -0.42
77 0.37
78 0.15
79 0.15
8 -0.23
80 0.15
81 0.15
9 -0.55

> <PUBCHEM_EFFECTIVE_ROTOR_COUNT>
12.8

> <PUBCHEM_PHARMACOPHORE_FEATURES>
12
1 1 acceptor
1 2 acceptor
1 3 acceptor
1 4 acceptor
1 5 cation
1 9 donor
4 21 24 25 26 hydrophobe
5 6 7 8 23 27 rings
6 13 14 17 18 19 20 rings
6 22 28 29 31 32 33 rings
6 37 38 39 40 41 42 rings
6 5 10 11 12 13 14 rings

> <PUBCHEM_HEAVY_ATOM_COUNT>
42

> <PUBCHEM_ATOM_DEF_STEREO_COUNT>
0

> <PUBCHEM_ATOM_UDEF_STEREO_COUNT>
0

> <PUBCHEM_BOND_DEF_STEREO_COUNT>
0

> <PUBCHEM_BOND_UDEF_STEREO_COUNT>
0

> <PUBCHEM_ISOTOPIC_ATOM_COUNT>
0

> <PUBCHEM_COMPONENT_COUNT>
1

> <PUBCHEM_CACTVS_TAUTO_COUNT>
12

> <PUBCHEM_CONFORMER_ID>
06128D5900000001

> <PUBCHEM_MMFF94_ENERGY>
142.0714

> <PUBCHEM_FEATURE_SELFOVERLAP>
60.924

> <PUBCHEM_SHAPE_FINGERPRINT>
11513181 2 17984691487716211558
12156800 1 17968094273795678289
12422481 6 18267021851005122227
12717326 68 17691683811506079987
12788726 201 17749682881745105611
13402501 40 17774144705440083624
14040222 383 18262247630184577769
15264996 44 17914908749040074877
15781502 593 18187941547220077265
19319366 153 17116653046582270569
20511986 3 16370728088941627549
20764821 26 18200864162925337660
35225 105 17973693945288338162
354706 132 17981631281317842732
404807 14 15839318627379978492
469060 322 18049481177468251746
5081480 168 16988019279174057020
508706 21 18342170029672043089
5171179 24 18200036278056680847
57527358 35 15141808272251787453
6086070 43 17846491496537590534
6287921 2 16843854578209109860

> <PUBCHEM_SHAPE_MULTIPOLES>
815.96
11.49
4.99
4.02
3.04
0.33
-0.27
-4.14
-2.4
-5.51
2.6
2.4
0.29
4.71

> <PUBCHEM_SHAPE_SELFOVERLAP>
1751.814

> <PUBCHEM_SHAPE_VOLUME>
451.2

> <PUBCHEM_COORDINATE_TYPE>
2
5
10

$$$$