22004473
  -OEChem-03242010103D

 76 80  0     1  0  0  0  0  0999 V2000
    9.3054    1.2719   -1.7791 O   0  0  0  0  0  0  0  0  0  0  0  0
   10.3979   -0.7329   -0.1978 O   0  0  0  0  0  0  0  0  0  0  0  0
   -3.6990    2.0660   -1.7759 O   0  0  0  0  0  0  0  0  0  0  0  0
   -7.8963   -1.2807    0.0625 O   0  0  0  0  0  0  0  0  0  0  0  0
    4.1407   -0.2489    1.1285 N   0  0  1  0  0  0  0  0  0  0  0  0
   -3.3064    2.0905    0.5422 N   0  0  0  0  0  0  0  0  0  0  0  0
   -5.9398   -0.0228   -0.2767 N   0  0  0  0  0  0  0  0  0  0  0  0
    4.4915   -1.6628    1.3100 C   0  0  0  0  0  0  0  0  0  0  0  0
    4.8193    0.2953   -0.0610 C   0  0  0  0  0  0  0  0  0  0  0  0
    5.9819   -1.7913    1.6410 C   0  0  0  0  0  0  0  0  0  0  0  0
    6.3083    0.0362   -0.0711 C   0  0  0  0  0  0  0  0  0  0  0  0
    6.8587   -0.9935    0.7113 C   0  0  0  0  0  0  0  0  0  0  0  0
    2.6925   -0.0845    1.0082 C   0  0  0  0  0  0  0  0  0  0  0  0
    2.3141    1.3948    0.9249 C   0  0  0  0  0  0  0  0  0  0  0  0
    7.1419    0.7837   -0.9140 C   0  0  0  0  0  0  0  0  0  0  0  0
    8.2379   -1.2357    0.6677 C   0  0  0  0  0  0  0  0  0  0  0  0
    8.5124    0.5286   -0.9578 C   0  0  0  0  0  0  0  0  0  0  0  0
    9.0601   -0.4783   -0.1662 C   0  0  0  0  0  0  0  0  0  0  0  0
    0.8210    1.5792    0.8232 C   0  0  0  0  0  0  0  0  0  0  0  0
    0.2228    1.6145   -0.4272 C   0  0  0  0  0  0  0  0  0  0  0  0
    0.0707    1.7108    1.9820 C   0  0  0  0  0  0  0  0  0  0  0  0
   -1.1583    1.7858   -0.5212 C   0  0  0  0  0  0  0  0  0  0  0  0
   -1.3104    1.8819    1.8882 C   0  0  0  0  0  0  0  0  0  0  0  0
   -1.9251    1.9193    0.6364 C   0  0  0  0  0  0  0  0  0  0  0  0
    9.8682    2.4631   -1.2327 C   0  0  0  0  0  0  0  0  0  0  0  0
   10.8530   -1.6908   -1.1515 C   0  0  0  0  0  0  0  0  0  0  0  0
   -4.0909    2.1524   -0.6172 C   0  0  0  0  0  0  0  0  0  0  0  0
   -5.5438    2.3720   -0.3925 C   0  0  0  0  0  0  0  0  0  0  0  0
   -6.3960    1.2978   -0.2343 C   0  0  0  0  0  0  0  0  0  0  0  0
   -5.9934    3.6774   -0.3494 C   0  0  0  0  0  0  0  0  0  0  0  0
   -7.7540    1.5379   -0.0244 C   0  0  0  0  0  0  0  0  0  0  0  0
   -7.3515    3.9172   -0.1396 C   0  0  0  0  0  0  0  0  0  0  0  0
   -8.2317    2.8475    0.0229 C   0  0  0  0  0  0  0  0  0  0  0  0
   -6.6884   -1.1964   -0.1311 C   0  0  0  0  0  0  0  0  0  0  0  0
   -5.9080   -2.4598   -0.1967 C   0  0  0  0  0  0  0  0  0  0  0  0
   -6.5383   -3.6098   -0.6229 C   0  0  0  0  0  0  0  0  0  0  0  0
   -4.5787   -2.4403    0.1705 C   0  0  0  0  0  0  0  0  0  0  0  0
   -4.4596   -4.8033   -0.3190 C   0  0  0  0  0  0  0  0  0  0  0  0
   -5.8058   -4.7952   -0.6847 C   0  0  0  0  0  0  0  0  0  0  0  0
   -3.8461   -3.6257    0.1087 C   0  0  0  0  0  0  0  0  0  0  0  0
   -3.6767   -6.0711   -0.3844 C   0  0  0  0  0  0  0  0  0  0  0  0
    3.9214   -2.1006    2.1386 H   0  0  0  0  0  0  0  0  0  0  0  0
    4.2513   -2.2430    0.4086 H   0  0  0  0  0  0  0  0  0  0  0  0
    4.7108    1.3843   -0.0828 H   0  0  0  0  0  0  0  0  0  0  0  0
    4.3948   -0.1194   -0.9848 H   0  0  0  0  0  0  0  0  0  0  0  0
    6.1607   -1.4376    2.6645 H   0  0  0  0  0  0  0  0  0  0  0  0
    6.2625   -2.8505    1.5992 H   0  0  0  0  0  0  0  0  0  0  0  0
    2.3047   -0.6277    0.1356 H   0  0  0  0  0  0  0  0  0  0  0  0
    2.2041   -0.5191    1.8905 H   0  0  0  0  0  0  0  0  0  0  0  0
    2.7532    1.8905    0.0525 H   0  0  0  0  0  0  0  0  0  0  0  0
    2.6926    1.9366    1.8020 H   0  0  0  0  0  0  0  0  0  0  0  0
    6.7197    1.5670   -1.5395 H   0  0  0  0  0  0  0  0  0  0  0  0
    8.6713   -2.0174    1.2875 H   0  0  0  0  0  0  0  0  0  0  0  0
    0.8117    1.5085   -1.3341 H   0  0  0  0  0  0  0  0  0  0  0  0
    0.5401    1.6811    2.9612 H   0  0  0  0  0  0  0  0  0  0  0  0
   -1.5589    1.8031   -1.5247 H   0  0  0  0  0  0  0  0  0  0  0  0
   -1.8956    1.9841    2.7986 H   0  0  0  0  0  0  0  0  0  0  0  0
   10.5079    2.2295   -0.3758 H   0  0  0  0  0  0  0  0  0  0  0  0
    9.0775    3.1583   -0.9331 H   0  0  0  0  0  0  0  0  0  0  0  0
   10.4784    2.9392   -2.0049 H   0  0  0  0  0  0  0  0  0  0  0  0
   10.4049   -2.6700   -0.9552 H   0  0  0  0  0  0  0  0  0  0  0  0
   10.6144   -1.3651   -2.1689 H   0  0  0  0  0  0  0  0  0  0  0  0
   11.9389   -1.7779   -1.0580 H   0  0  0  0  0  0  0  0  0  0  0  0
   -3.7960    2.1840    1.4298 H   0  0  0  0  0  0  0  0  0  0  0  0
   -5.3139    4.5153   -0.4751 H   0  0  0  0  0  0  0  0  0  0  0  0
   -8.5035    0.7722    0.1108 H   0  0  0  0  0  0  0  0  0  0  0  0
   -4.9498   -0.1152   -0.4806 H   0  0  0  0  0  0  0  0  0  0  0  0
   -7.7235    4.9369   -0.1026 H   0  0  0  0  0  0  0  0  0  0  0  0
   -9.2889    3.0361    0.1862 H   0  0  0  0  0  0  0  0  0  0  0  0
   -7.5837   -3.6197   -0.9167 H   0  0  0  0  0  0  0  0  0  0  0  0
   -4.0719   -1.5588    0.5489 H   0  0  0  0  0  0  0  0  0  0  0  0
   -6.2951   -5.7064   -1.0189 H   0  0  0  0  0  0  0  0  0  0  0  0
   -2.8008   -3.6220    0.4067 H   0  0  0  0  0  0  0  0  0  0  0  0
   -3.7465   -6.6051    0.5684 H   0  0  0  0  0  0  0  0  0  0  0  0
   -2.6210   -5.8729   -0.5992 H   0  0  0  0  0  0  0  0  0  0  0  0
   -4.0482   -6.7243   -1.1812 H   0  0  0  0  0  0  0  0  0  0  0  0
  1 17  1  0  0  0  0
  1 25  1  0  0  0  0
  2 18  1  0  0  0  0
  2 26  1  0  0  0  0
  3 27  2  0  0  0  0
  4 34  2  0  0  0  0
  5  8  1  0  0  0  0
  5  9  1  0  0  0  0
  5 13  1  0  0  0  0
  6 24  1  0  0  0  0
  6 27  1  0  0  0  0
  6 64  1  0  0  0  0
  7 29  1  0  0  0  0
  7 34  1  0  0  0  0
  7 67  1  0  0  0  0
  8 10  1  0  0  0  0
  8 42  1  0  0  0  0
  8 43  1  0  0  0  0
  9 11  1  0  0  0  0
  9 44  1  0  0  0  0
  9 45  1  0  0  0  0
 10 12  1  0  0  0  0
 10 46  1  0  0  0  0
 10 47  1  0  0  0  0
 11 12  1  0  0  0  0
 11 15  2  0  0  0  0
 12 16  2  0  0  0  0
 13 14  1  0  0  0  0
 13 48  1  0  0  0  0
 13 49  1  0  0  0  0
 14 19  1  0  0  0  0
 14 50  1  0  0  0  0
 14 51  1  0  0  0  0
 15 17  1  0  0  0  0
 15 52  1  0  0  0  0
 16 18  1  0  0  0  0
 16 53  1  0  0  0  0
 17 18  2  0  0  0  0
 19 20  2  0  0  0  0
 19 21  1  0  0  0  0
 20 22  1  0  0  0  0
 20 54  1  0  0  0  0
 21 23  2  0  0  0  0
 21 55  1  0  0  0  0
 22 24  2  0  0  0  0
 22 56  1  0  0  0  0
 23 24  1  0  0  0  0
 23 57  1  0  0  0  0
 25 58  1  0  0  0  0
 25 59  1  0  0  0  0
 25 60  1  0  0  0  0
 26 61  1  0  0  0  0
 26 62  1  0  0  0  0
 26 63  1  0  0  0  0
 27 28  1  0  0  0  0
 28 29  1  0  0  0  0
 28 30  2  0  0  0  0
 29 31  2  0  0  0  0
 30 32  1  0  0  0  0
 30 65  1  0  0  0  0
 31 33  1  0  0  0  0
 31 66  1  0  0  0  0
 32 33  2  0  0  0  0
 32 68  1  0  0  0  0
 33 69  1  0  0  0  0
 34 35  1  0  0  0  0
 35 36  2  0  0  0  0
 35 37  1  0  0  0  0
 36 39  1  0  0  0  0
 36 70  1  0  0  0  0
 37 40  2  0  0  0  0
 37 71  1  0  0  0  0
 38 39  2  0  0  0  0
 38 40  1  0  0  0  0
 38 41  1  0  0  0  0
 39 72  1  0  0  0  0
 40 73  1  0  0  0  0
 41 74  1  0  0  0  0
 41 75  1  0  0  0  0
 41 76  1  0  0  0  0
M  END
> <PUBCHEM_COMPOUND_CID>
22004473

> <PUBCHEM_CONFORMER_RMSD>
1.2

> <PUBCHEM_CONFORMER_DIVERSEORDER>
1
42
78
90
96
40
57
58
26
97
34
71
32
41
46
62
25
56
80
101
30
65
72
29
124
55
74
69
50
99
92
7
38
89
73
114
86
16
107
60
37
108
52
81
24
88
49
9
87
43
19
14
61
18
63
79
105
33
4
93
110
22
103
2
121
115
102
15
66
12
68
28
76
111
27
54
48
100
95
47
75
98
94
112
104
17
8
84
35
119
113
23
82
67
44
123
10
20
120
70
77
51
106
116
122
91
53
109
118
3
64
117
11
5
6
13
83
31
85
39
45
21
59
36

> <PUBCHEM_MMFF94_PARTIAL_CHARGES>
57
1 -0.36
10 0.14
11 -0.14
12 -0.14
13 0.27
14 0.14
15 -0.15
16 -0.15
17 0.08
18 0.08
19 -0.14
2 -0.36
20 -0.15
21 -0.15
22 -0.15
23 -0.15
24 0.12
25 0.28
26 0.28
27 0.54
28 0.09
29 0.12
3 -0.57
30 -0.15
31 -0.15
32 -0.15
33 -0.15
34 0.54
35 0.09
36 -0.15
37 -0.15
38 -0.14
39 -0.15
4 -0.57
40 -0.15
41 0.14
5 -0.81
52 0.15
53 0.15
54 0.15
55 0.15
56 0.15
57 0.15
6 -0.55
64 0.37
65 0.15
66 0.15
67 0.37
68 0.15
69 0.15
7 -0.55
70 0.15
71 0.15
72 0.15
73 0.15
8 0.27
9 0.41

> <PUBCHEM_EFFECTIVE_ROTOR_COUNT>
11.8

> <PUBCHEM_PHARMACOPHORE_FEATURES>
12
1 1 acceptor
1 2 acceptor
1 3 acceptor
1 4 acceptor
1 5 cation
1 6 donor
1 7 donor
6 11 12 15 16 17 18 rings
6 19 20 21 22 23 24 rings
6 28 29 30 31 32 33 rings
6 35 36 37 38 39 40 rings
6 5 8 9 10 11 12 rings

> <PUBCHEM_HEAVY_ATOM_COUNT>
41

> <PUBCHEM_ATOM_DEF_STEREO_COUNT>
0

> <PUBCHEM_ATOM_UDEF_STEREO_COUNT>
0

> <PUBCHEM_BOND_DEF_STEREO_COUNT>
0

> <PUBCHEM_BOND_UDEF_STEREO_COUNT>
0

> <PUBCHEM_ISOTOPIC_ATOM_COUNT>
0

> <PUBCHEM_COMPONENT_COUNT>
1

> <PUBCHEM_CACTVS_TAUTO_COUNT>
7

> <PUBCHEM_CONFORMER_ID>
014FC2F900000001

> <PUBCHEM_MMFF94_ENERGY>
153.3255

> <PUBCHEM_FEATURE_SELFOVERLAP>
60.924

> <PUBCHEM_SHAPE_FINGERPRINT>
10050765 1 18339355396070066081
11103572 155 18336823100421469582
11621639 307 14997384160279485077
117089 54 17901105536575757331
11763389 116 18060421304568312159
12144600 37 18269834375294230688
12144603 126 18187366493505230800
131240 100 18201434810346727840
13165053 68 18193841677017641996
14340393 91 18340486771933110937
14856354 85 18271803498062523877
15064986 266 18040723583978685913
15230672 131 18411129209170967859
15361156 5 18040155119725554289
15461852 350 18408045096235100372
15890870 6 18339355259711942721
17324776 126 17482252118335210359
19304144 158 11169902884275590521
19611394 137 18131349747624873409
20105231 36 17131827647228298004
21867018 265 18410295830590629262
23516275 137 17974582299624367123
23576562 1 18334580183185689220
335507 130 17967821530656720329
395649 100 18410856568229724166
4017518 198 18338789028408542263
45377200 153 18413392025650308786
4625314 4 18411421705102604268
57676310 188 18261108513961907883
58902169 19 17822015310956180132
6691757 9 18201727211298285513

> <PUBCHEM_SHAPE_MULTIPOLES>
805.34
37.6
6.27
1.33
79.24
8.97
-0.25
1.05
12.47
-20.17
1.19
2.13
-0.43
-2.17

> <PUBCHEM_SHAPE_SELFOVERLAP>
1750.028

> <PUBCHEM_SHAPE_VOLUME>
439.4

> <PUBCHEM_COORDINATE_TYPE>
2
5
10

$$$$