185
 OpenBabel03292022023D

168171  0  0  1  0  0  0  0  0999 V2000
    2.8944    0.0686   -1.7763 C   0  0  0  0  0  0  0  0  0  0  0  0
    2.3583    1.5157   -1.9242 C   0  0  0  0  0  0  0  0  0  0  0  0
    2.4940    2.5334   -0.6926 C   0  0  2  0  0  0  0  0  0  0  0  0
    3.6370    1.8161    0.1720 C   0  0  0  0  0  0  0  0  0  0  0  0
    2.7228    4.0690   -1.3706 C   0  0  2  0  0  0  0  0  0  0  0  0
    2.4215    5.7641   -0.8977 N   0  0  0  0  0  0  0  0  0  0  0  0
    1.2316    7.3319   -0.8844 C   0  0  0  0  0  0  0  0  0  0  0  0
    0.0273    7.4628   -1.3055 O   0  0  0  0  0  0  0  0  0  0  0  0
    1.7013    9.0786   -0.3156 C   0  0  2  0  0  0  0  0  0  0  0  0
    2.6811    9.7481    0.7140 C   0  0  0  0  0  0  0  0  0  0  0  0
    1.8710   10.0023    1.9811 C   0  0  0  0  0  0  0  0  0  0  0  0
    0.4208    9.8340    1.5359 C   0  0  0  0  0  0  0  0  0  0  0  0
    0.4879    9.7521    0.0985 N   0  0  0  0  0  0  0  0  0  0  0  0
   -0.4803   10.2166   -0.7516 C   0  0  0  0  0  0  0  0  0  0  0  0
   -1.6804   10.2044   -0.3826 O   0  0  0  0  0  0  0  0  0  0  0  0
   -0.0161   10.8934   -2.0827 C   0  0  2  0  0  0  0  0  0  0  0  0
   -1.1203   11.8023   -2.6672 C   0  0  0  0  0  0  0  0  0  0  0  0
   -1.3279   13.0289   -1.8044 C   0  0  0  0  0  0  0  0  0  0  0  0
   -0.4724   14.1306   -1.9207 C   0  0  0  0  0  0  0  0  0  0  0  0
   -0.5613   15.1851   -1.0122 C   0  0  0  0  0  0  0  0  0  0  0  0
   -1.4918   15.1416    0.0254 C   0  0  0  0  0  0  0  0  0  0  0  0
   -2.3602   14.0600    0.1360 C   0  0  0  0  0  0  0  0  0  0  0  0
   -2.2928   13.0213   -0.7884 C   0  0  0  0  0  0  0  0  0  0  0  0
    0.5333    9.9702   -3.1096 N   0  0  0  0  0  0  0  0  0  0  0  0
   -0.4203    9.0846   -3.7657 C   0  0  0  0  0  0  0  0  0  0  0  0
    1.8750   10.0917   -3.4627 C   0  0  0  0  0  0  0  0  0  0  0  0
    2.5963   10.9593   -2.9625 O   0  0  0  0  0  0  0  0  0  0  0  0
    2.5138    9.0721   -4.4006 C   0  0  2  0  0  0  0  0  0  0  0  0
    3.2678    7.9399   -3.6499 C   0  0  0  0  0  0  0  0  0  0  0  0
    2.6689    7.1856   -2.4275 C   0  0  0  0  0  0  0  0  0  0  0  0
    1.2745    6.0391   -2.5865 C   0  0  0  0  0  0  0  0  0  0  0  0
    0.4509    5.3406   -1.0942 C   0  0  0  0  0  0  0  0  0  0  0  0
    1.0109    5.8240    0.5642 C   0  0  0  0  0  0  0  0  0  0  0  0
    2.4288    6.9520    0.7396 C   0  0  0  0  0  0  0  0  0  0  0  0
    3.2990    7.5707   -0.7862 C   0  0  0  0  0  0  0  0  0  0  0  0
    3.3160    9.7643   -5.4738 N   0  0  0  0  0  0  0  0  0  0  0  0
    4.3898   10.5861   -5.6324 C   0  0  0  0  0  0  0  0  0  0  0  0
    4.7462   10.6514   -6.8232 O   0  0  0  0  0  0  0  0  0  0  0  0
    5.1354   11.4510   -4.5403 C   0  0  2  0  0  0  0  0  0  0  0  0
    4.7155   12.9618   -4.4546 C   0  0  0  0  0  0  0  0  0  0  0  0
    5.3276   13.6354   -3.2114 C   0  0  0  0  0  0  0  0  0  0  0  0
    3.2238   13.2814   -4.4996 C   0  0  0  0  0  0  0  0  0  0  0  0
    6.6433   11.4267   -4.8288 N   0  0  0  0  0  0  0  0  0  0  0  0
    7.1075   11.9984   -6.0862 C   0  0  0  0  0  0  0  0  0  0  0  0
    7.5338   11.1672   -3.7850 C   0  0  0  0  0  0  0  0  0  0  0  0
    7.0710   10.9707   -2.6562 O   0  0  0  0  0  0  0  0  0  0  0  0
    9.0683   10.8426   -4.0990 C   0  0  1  0  0  0  0  0  0  0  0  0
   10.0444   11.6480   -5.0124 C   0  0  1  0  0  0  0  0  0  0  0  0
   10.1252   13.1499   -4.7578 C   0  0  0  0  0  0  0  0  0  0  0  0
   11.4656   11.0076   -5.0311 C   0  0  0  0  0  0  0  0  0  0  0  0
   12.2189   11.2317   -6.3337 C   0  0  0  0  0  0  0  0  0  0  0  0
    9.8443   10.1311   -3.0927 O   0  0  0  0  0  0  0  0  0  0  0  0
    9.4279   10.0009   -1.8108 C   0  0  0  0  0  0  0  0  0  0  0  0
    9.1821   10.9749   -1.1078 O   0  0  0  0  0  0  0  0  0  0  0  0
    9.4748    8.4949   -1.3419 C   0  0  0  0  0  0  0  0  0  0  0  0
    9.4936    7.4983   -2.2994 C   0  0  0  0  0  0  0  0  0  0  0  0
    9.5579    6.0003   -2.0934 C   0  0  0  0  0  0  0  0  0  0  0  0
    9.2569    7.7270   -3.7867 C   0  0  0  0  0  0  0  0  0  0  0  0
    9.3379    8.2434    0.0760 N   0  0  0  0  0  0  0  0  0  0  0  0
    8.9833    9.3513    0.9761 C   0  0  0  0  0  0  0  0  0  0  0  0
    9.4225    6.9587    0.6693 C   0  0  0  0  0  0  0  0  0  0  0  0
   10.3862    6.2124    0.4874 O   0  0  0  0  0  0  0  0  0  0  0  0
    8.3403    6.6117    1.7481 C   0  0  2  0  0  0  0  0  0  0  0  0
    8.0959    5.1697    2.2287 C   0  0  0  0  0  0  0  0  0  0  0  0
    9.2932    4.3621    2.7064 C   0  0  0  0  0  0  0  0  0  0  0  0
    9.9247    4.9930    3.9379 C   0  0  0  0  0  0  0  0  0  0  0  0
    8.8425    2.9246    2.9930 C   0  0  0  0  0  0  0  0  0  0  0  0
    7.0756    7.2287    1.3991 N   0  0  0  0  0  0  0  0  0  0  0  0
    5.9747    6.6595    0.8941 C   0  0  0  0  0  0  0  0  0  0  0  0
    4.9945    7.1370    1.4755 O   0  0  0  0  0  0  0  0  0  0  0  0
    5.8943    5.5633   -0.2454 C   0  0  2  0  0  0  0  0  0  0  0  0
    6.2006    6.0764   -1.7293 C   0  0  0  0  0  0  0  0  0  0  0  0
    6.4013    7.5706   -1.8575 C   0  0  0  0  0  0  0  0  0  0  0  0
    5.5082    5.6088   -3.0407 C   0  0  0  0  0  0  0  0  0  0  0  0
    4.6202    4.8583   -0.0677 N   0  0  0  0  0  0  0  0  0  0  0  0
    4.1284    4.5363    1.3095 C   0  0  0  0  0  0  0  0  0  0  0  0
    4.2332    4.0617   -1.1460 C   0  0  0  0  0  0  0  0  0  0  0  0
    5.0111    3.3536   -1.7718 O   0  0  0  0  0  0  0  0  0  0  0  0
    2.5735   -0.5534   -2.6170 H   0  0  0  0  0  0  0  0  0  0  0  0
    2.5547   -0.4222   -0.8593 H   0  0  0  0  0  0  0  0  0  0  0  0
    3.9939    0.0360   -1.7963 H   0  0  0  0  0  0  0  0  0  0  0  0
    1.3052    1.4644   -2.2102 H   0  0  0  0  0  0  0  0  0  0  0  0
    2.9042    1.9241   -2.7842 H   0  0  0  0  0  0  0  0  0  0  0  0
    1.5686    2.5282   -0.1097 H   0  0  0  0  0  0  0  0  0  0  0  0
    4.5062    1.5279   -0.4360 H   0  0  0  0  0  0  0  0  0  0  0  0
    3.2575    0.8980    0.6315 H   0  0  0  0  0  0  0  0  0  0  0  0
    4.0761    2.3260    1.0141 H   0  0  0  0  0  0  0  0  0  0  0  0
    2.5111    4.0308   -2.4443 H   0  0  0  0  0  0  0  0  0  0  0  0
    3.3174    5.8184   -0.4243 H   0  0  0  0  0  0  0  0  0  0  0  0
    2.0046    9.5227   -1.2643 H   0  0  0  0  0  0  0  0  0  0  0  0
    2.9632   10.7336    0.3124 H   0  0  0  0  0  0  0  0  0  0  0  0
    3.6365    9.2874    0.9593 H   0  0  0  0  0  0  0  0  0  0  0  0
    2.0749   11.0123    2.3598 H   0  0  0  0  0  0  0  0  0  0  0  0
    2.1417    9.3054    2.7811 H   0  0  0  0  0  0  0  0  0  0  0  0
   -0.2043   10.6652    1.8690 H   0  0  0  0  0  0  0  0  0  0  0  0
    0.0204    8.8918    1.9183 H   0  0  0  0  0  0  0  0  0  0  0  0
    0.7983   11.5582   -1.7639 H   0  0  0  0  0  0  0  0  0  0  0  0
   -0.8419   12.1301   -3.6780 H   0  0  0  0  0  0  0  0  0  0  0  0
   -2.0641   11.2539   -2.7779 H   0  0  0  0  0  0  0  0  0  0  0  0
    0.2891   14.1570   -2.6971 H   0  0  0  0  0  0  0  0  0  0  0  0
    0.1164   16.0307   -1.0969 H   0  0  0  0  0  0  0  0  0  0  0  0
   -1.5361   15.9454    0.7540 H   0  0  0  0  0  0  0  0  0  0  0  0
   -3.0745   14.0051    0.9527 H   0  0  0  0  0  0  0  0  0  0  0  0
   -2.9637   12.1716   -0.6709 H   0  0  0  0  0  0  0  0  0  0  0  0
   -1.2689    8.8808   -3.1099 H   0  0  0  0  0  0  0  0  0  0  0  0
    0.0340    8.1342   -4.0425 H   0  0  0  0  0  0  0  0  0  0  0  0
   -0.7707    9.5816   -4.6746 H   0  0  0  0  0  0  0  0  0  0  0  0
    1.7292    8.5946   -4.9911 H   0  0  0  0  0  0  0  0  0  0  0  0
    3.5335    7.1765   -4.3915 H   0  0  0  0  0  0  0  0  0  0  0  0
    4.2116    8.3783   -3.3351 H   0  0  0  0  0  0  0  0  0  0  0  0
    0.8404    5.8304   -3.5624 H   0  0  0  0  0  0  0  0  0  0  0  0
   -0.4595    4.7687   -1.2019 H   0  0  0  0  0  0  0  0  0  0  0  0
    0.4601    5.5243    1.4478 H   0  0  0  0  0  0  0  0  0  0  0  0
    2.7349    7.2662    1.7330 H   0  0  0  0  0  0  0  0  0  0  0  0
    4.1335    8.2641   -0.6656 H   0  0  0  0  0  0  0  0  0  0  0  0
    3.1010    9.4037   -6.3964 H   0  0  0  0  0  0  0  0  0  0  0  0
    4.9622   10.9548   -3.5814 H   0  0  0  0  0  0  0  0  0  0  0  0
    5.1326   13.4856   -5.3228 H   0  0  0  0  0  0  0  0  0  0  0  0
    5.0615   13.0947   -2.2965 H   0  0  0  0  0  0  0  0  0  0  0  0
    4.9756   14.6675   -3.1062 H   0  0  0  0  0  0  0  0  0  0  0  0
    6.4196   13.6808   -3.2756 H   0  0  0  0  0  0  0  0  0  0  0  0
    2.7524   13.1876   -3.5186 H   0  0  0  0  0  0  0  0  0  0  0  0
    2.6882   12.6716   -5.2295 H   0  0  0  0  0  0  0  0  0  0  0  0
    3.0869   14.3299   -4.7934 H   0  0  0  0  0  0  0  0  0  0  0  0
    6.2926   12.3326   -6.7274 H   0  0  0  0  0  0  0  0  0  0  0  0
    7.6906   11.2519   -6.6262 H   0  0  0  0  0  0  0  0  0  0  0  0
    7.7119   12.8814   -5.8689 H   0  0  0  0  0  0  0  0  0  0  0  0
    8.8701   10.0307   -4.8126 H   0  0  0  0  0  0  0  0  0  0  0  0
    9.6679   11.5420   -6.0357 H   0  0  0  0  0  0  0  0  0  0  0  0
   11.0046   13.4323   -4.1724 H   0  0  0  0  0  0  0  0  0  0  0  0
    9.2342   13.5375   -4.2584 H   0  0  0  0  0  0  0  0  0  0  0  0
   10.2091   13.6684   -5.7230 H   0  0  0  0  0  0  0  0  0  0  0  0
   11.3950    9.9210   -4.9082 H   0  0  0  0  0  0  0  0  0  0  0  0
   12.0642   11.3788   -4.1899 H   0  0  0  0  0  0  0  0  0  0  0  0
   11.6731   10.7870   -7.1727 H   0  0  0  0  0  0  0  0  0  0  0  0
   13.1984   10.7431   -6.2852 H   0  0  0  0  0  0  0  0  0  0  0  0
   12.3736   12.2935   -6.5372 H   0  0  0  0  0  0  0  0  0  0  0  0
    9.0037    5.6512   -1.2272 H   0  0  0  0  0  0  0  0  0  0  0  0
   10.5935    5.6625   -2.0470 H   0  0  0  0  0  0  0  0  0  0  0  0
    9.0872    5.4533   -2.9212 H   0  0  0  0  0  0  0  0  0  0  0  0
    8.4129    8.4009   -3.9288 H   0  0  0  0  0  0  0  0  0  0  0  0
    8.9132    6.8371   -4.3243 H   0  0  0  0  0  0  0  0  0  0  0  0
   10.1558    8.0718   -4.2973 H   0  0  0  0  0  0  0  0  0  0  0  0
    9.6728   10.1880    0.8742 H   0  0  0  0  0  0  0  0  0  0  0  0
    9.0832    9.0567    2.0246 H   0  0  0  0  0  0  0  0  0  0  0  0
    7.9444    9.6551    0.8031 H   0  0  0  0  0  0  0  0  0  0  0  0
    8.6537    7.1567    2.6455 H   0  0  0  0  0  0  0  0  0  0  0  0
    7.3520    5.2121    3.0435 H   0  0  0  0  0  0  0  0  0  0  0  0
    7.6205    4.5716    1.4588 H   0  0  0  0  0  0  0  0  0  0  0  0
   10.0333    4.3099    1.9038 H   0  0  0  0  0  0  0  0  0  0  0  0
    9.2091    5.0469    4.7658 H   0  0  0  0  0  0  0  0  0  0  0  0
   10.2720    6.0085    3.7250 H   0  0  0  0  0  0  0  0  0  0  0  0
   10.7880    4.4088    4.2655 H   0  0  0  0  0  0  0  0  0  0  0  0
    8.0864    2.8876    3.7851 H   0  0  0  0  0  0  0  0  0  0  0  0
    9.6921    2.3067    3.2954 H   0  0  0  0  0  0  0  0  0  0  0  0
    8.4042    2.4695    2.0960 H   0  0  0  0  0  0  0  0  0  0  0  0
    6.7496    7.9047    2.0827 H   0  0  0  0  0  0  0  0  0  0  0  0
    6.6287    4.7834   -0.0617 H   0  0  0  0  0  0  0  0  0  0  0  0
    7.1720    5.6264   -1.8904 H   0  0  0  0  0  0  0  0  0  0  0  0
    5.4954    8.1440   -1.9056 H   0  0  0  0  0  0  0  0  0  0  0  0
    6.8822    7.7844   -2.8058 H   0  0  0  0  0  0  0  0  0  0  0  0
    6.9896    7.9836   -1.0521 H   0  0  0  0  0  0  0  0  0  0  0  0
    4.4262    5.5466   -2.9903 H   0  0  0  0  0  0  0  0  0  0  0  0
    5.8884    4.6409   -3.3861 H   0  0  0  0  0  0  0  0  0  0  0  0
    5.7261    6.2838   -3.8769 H   0  0  0  0  0  0  0  0  0  0  0  0
    3.8515    5.3916    1.9122 H   0  0  0  0  0  0  0  0  0  0  0  0
    4.8977    3.9926    1.8615 H   0  0  0  0  0  0  0  0  0  0  0  0
    3.1909    3.9719    1.2779 H   0  0  0  0  0  0  0  0  0  0  0  0
  1  2  1  0  0  0  0
  1 79  1  0  0  0  0
  1 80  1  0  0  0  0
  1 81  1  0  0  0  0
  2 82  1  0  0  0  0
  2 83  1  0  0  0  0
  3  4  1  0  0  0  0
  3  2  1  0  0  0  0
  3 84  1  6  0  0  0
  4 85  1  0  0  0  0
  4 86  1  0  0  0  0
  4 87  1  0  0  0  0
  5  6  1  0  0  0  0
  5 77  1  0  0  0  0
  5  3  1  0  0  0  0
  5 88  1  1  0  0  0
  6  7  1  0  0  0  0
  6 89  1  0  0  0  0
  7  8  2  0  0  0  0
  7  9  1  0  0  0  0
  9 10  1  0  0  0  0
  9 13  1  0  0  0  0
  9 90  1  6  0  0  0
 10 11  1  0  0  0  0
 10 91  1  0  0  0  0
 10 92  1  0  0  0  0
 11 12  1  0  0  0  0
 11 93  1  0  0  0  0
 11 94  1  0  0  0  0
 12 13  1  0  0  0  0
 12 95  1  0  0  0  0
 12 96  1  0  0  0  0
 13 14  1  0  0  0  0
 14 15  2  0  0  0  0
 14 16  1  0  0  0  0
 16 24  1  0  0  0  0
 16 17  1  0  0  0  0
 16 97  1  1  0  0  0
 17 18  1  0  0  0  0
 17 98  1  0  0  0  0
 17 99  1  0  0  0  0
 18 19  1  0  0  0  0
 18 23  2  0  0  0  0
 19 20  2  0  0  0  0
 19100  1  0  0  0  0
 20 21  1  0  0  0  0
 20101  1  0  0  0  0
 21 22  2  0  0  0  0
 21102  1  0  0  0  0
 22 23  1  0  0  0  0
 22103  1  0  0  0  0
 23104  1  0  0  0  0
 24 25  1  0  0  0  0
 24 26  1  0  0  0  0
 25105  1  0  0  0  0
 25106  1  0  0  0  0
 25107  1  0  0  0  0
 26 27  2  0  0  0  0
 26 28  1  0  0  0  0
 28 36  1  0  0  0  0
 28 29  1  0  0  0  0
 28108  1  6  0  0  0
 29 30  1  0  0  0  0
 29109  1  0  0  0  0
 29110  1  0  0  0  0
 30 31  1  0  0  0  0
 30 35  2  0  0  0  0
 31 32  2  0  0  0  0
 31111  1  0  0  0  0
 32 33  1  0  0  0  0
 32112  1  0  0  0  0
 33 34  2  0  0  0  0
 33113  1  0  0  0  0
 34 35  1  0  0  0  0
 34114  1  0  0  0  0
 35115  1  0  0  0  0
 36 37  1  0  0  0  0
 36116  1  0  0  0  0
 37 38  2  0  0  0  0
 37 39  1  0  0  0  0
 39 43  1  0  0  0  0
 39 40  1  0  0  0  0
 39117  1  1  0  0  0
 40 41  1  0  0  0  0
 40 42  1  0  0  0  0
 40118  1  0  0  0  0
 41119  1  0  0  0  0
 41120  1  0  0  0  0
 41121  1  0  0  0  0
 42122  1  0  0  0  0
 42123  1  0  0  0  0
 42124  1  0  0  0  0
 43 44  1  0  0  0  0
 43 45  1  0  0  0  0
 44125  1  0  0  0  0
 44126  1  0  0  0  0
 44127  1  0  0  0  0
 45 46  2  0  0  0  0
 45 47  1  0  0  0  0
 47 48  1  0  0  0  0
 47 52  1  0  0  0  0
 47128  1  6  0  0  0
 48 49  1  0  0  0  0
 48 50  1  0  0  0  0
 48129  1  6  0  0  0
 49130  1  0  0  0  0
 49131  1  0  0  0  0
 49132  1  0  0  0  0
 50 51  1  0  0  0  0
 50133  1  0  0  0  0
 50134  1  0  0  0  0
 51135  1  0  0  0  0
 51136  1  0  0  0  0
 51137  1  0  0  0  0
 52 53  1  0  0  0  0
 53 54  2  0  0  0  0
 53 55  1  0  0  0  0
 55 56  2  0  0  0  0
 55 59  1  0  0  0  0
 56 57  1  0  0  0  0
 56 58  1  0  0  0  0
 57138  1  0  0  0  0
 57139  1  0  0  0  0
 57140  1  0  0  0  0
 58141  1  0  0  0  0
 58142  1  0  0  0  0
 58143  1  0  0  0  0
 59 60  1  0  0  0  0
 59 61  1  0  0  0  0
 60144  1  0  0  0  0
 60145  1  0  0  0  0
 60146  1  0  0  0  0
 61 62  2  0  0  0  0
 61 63  1  0  0  0  0
 63 68  1  0  0  0  0
 63 64  1  0  0  0  0
 63147  1  1  0  0  0
 64 65  1  0  0  0  0
 64148  1  0  0  0  0
 64149  1  0  0  0  0
 65 66  1  0  0  0  0
 65 67  1  0  0  0  0
 65150  1  0  0  0  0
 66151  1  0  0  0  0
 66152  1  0  0  0  0
 66153  1  0  0  0  0
 67154  1  0  0  0  0
 67155  1  0  0  0  0
 67156  1  0  0  0  0
 68 69  1  0  0  0  0
 68157  1  0  0  0  0
 69 70  2  0  0  0  0
 69 71  1  0  0  0  0
 71 75  1  0  0  0  0
 71 72  1  0  0  0  0
 71158  1  1  0  0  0
 72 73  1  0  0  0  0
 72 74  1  0  0  0  0
 72159  1  0  0  0  0
 73160  1  0  0  0  0
 73161  1  0  0  0  0
 73162  1  0  0  0  0
 74163  1  0  0  0  0
 74164  1  0  0  0  0
 74165  1  0  0  0  0
 75 76  1  0  0  0  0
 75 77  1  0  0  0  0
 76166  1  0  0  0  0
 76167  1  0  0  0  0
 76168  1  0  0  0  0
 77 78  2  0  0  0  0
M  END
>  <Energy>
1549.86

$$$$