24808344
  -OEChem-03242010103D

 55 57  0     0  0  0  0  0  0999 V2000
    0.1834   -4.5454    0.4365 O   0  0  0  0  0  0  0  0  0  0  0  0
    4.3351    0.4606   -1.9616 O   0  0  0  0  0  0  0  0  0  0  0  0
    5.2103   -0.4704    0.5064 O   0  0  0  0  0  0  0  0  0  0  0  0
   -0.6068    1.9387    0.3077 N   0  0  0  0  0  0  0  0  0  0  0  0
   -2.8799    0.1661    0.6119 C   0  0  0  0  0  0  0  0  0  0  0  0
   -3.0289    1.6493    0.3761 C   0  0  0  0  0  0  0  0  0  0  0  0
   -2.5064   -0.6167   -0.6627 C   0  0  0  0  0  0  0  0  0  0  0  0
   -1.9121    2.4730    0.2354 C   0  0  0  0  0  0  0  0  0  0  0  0
   -2.3750   -2.0877   -0.4562 C   0  0  0  0  0  0  0  0  0  0  0  0
    0.5677    2.7410    0.1679 C   0  0  0  0  0  0  0  0  0  0  0  0
   -4.3109    2.1937    0.2997 C   0  0  0  0  0  0  0  0  0  0  0  0
   -2.0773    3.8410    0.0186 C   0  0  0  0  0  0  0  0  0  0  0  0
    1.8026    1.8877    0.2548 C   0  0  0  0  0  0  0  0  0  0  0  0
   -1.1418   -2.6352   -0.1026 C   0  0  0  0  0  0  0  0  0  0  0  0
   -4.4762    3.5616    0.0828 C   0  0  0  0  0  0  0  0  0  0  0  0
   -3.4858   -2.9160   -0.6165 C   0  0  0  0  0  0  0  0  0  0  0  0
   -3.3593    4.3853   -0.0578 C   0  0  0  0  0  0  0  0  0  0  0  0
    2.5091    1.5638   -0.9035 C   0  0  0  0  0  0  0  0  0  0  0  0
    2.2414    1.4196    1.4933 C   0  0  0  0  0  0  0  0  0  0  0  0
   -1.0194   -4.0111    0.0908 C   0  0  0  0  0  0  0  0  0  0  0  0
   -3.3634   -4.2920   -0.4232 C   0  0  0  0  0  0  0  0  0  0  0  0
    3.6544    0.7718   -0.8234 C   0  0  0  0  0  0  0  0  0  0  0  0
   -2.1302   -4.8394   -0.0694 C   0  0  0  0  0  0  0  0  0  0  0  0
    4.0933    0.3036    0.4151 C   0  0  0  0  0  0  0  0  0  0  0  0
    3.3868    0.6276    1.5734 C   0  0  0  0  0  0  0  0  0  0  0  0
    1.2775   -3.6414    0.5838 C   0  0  0  0  0  0  0  0  0  0  0  0
    3.8206    0.9788   -3.1867 C   0  0  0  0  0  0  0  0  0  0  0  0
    5.5912   -0.9079    1.8094 C   0  0  0  0  0  0  0  0  0  0  0  0
   -3.8217   -0.2346    1.0118 H   0  0  0  0  0  0  0  0  0  0  0  0
   -2.1484   -0.0144    1.4102 H   0  0  0  0  0  0  0  0  0  0  0  0
   -3.2651   -0.4281   -1.4353 H   0  0  0  0  0  0  0  0  0  0  0  0
   -1.5756   -0.2309   -1.0975 H   0  0  0  0  0  0  0  0  0  0  0  0
    0.5649    3.2731   -0.7918 H   0  0  0  0  0  0  0  0  0  0  0  0
    0.6207    3.5027    0.9567 H   0  0  0  0  0  0  0  0  0  0  0  0
   -0.5037    0.9489    0.4936 H   0  0  0  0  0  0  0  0  0  0  0  0
   -5.1913    1.5653    0.4045 H   0  0  0  0  0  0  0  0  0  0  0  0
   -1.2393    4.5218   -0.0950 H   0  0  0  0  0  0  0  0  0  0  0  0
   -0.3127   -1.9443    0.0116 H   0  0  0  0  0  0  0  0  0  0  0  0
   -5.4743    3.9854    0.0226 H   0  0  0  0  0  0  0  0  0  0  0  0
   -4.4526   -2.5015   -0.8896 H   0  0  0  0  0  0  0  0  0  0  0  0
   -3.4886    5.4504   -0.2263 H   0  0  0  0  0  0  0  0  0  0  0  0
    2.1201    1.9519   -1.8388 H   0  0  0  0  0  0  0  0  0  0  0  0
    1.6978    1.6657    2.4018 H   0  0  0  0  0  0  0  0  0  0  0  0
   -4.2284   -4.9370   -0.5473 H   0  0  0  0  0  0  0  0  0  0  0  0
   -2.0411   -5.9119    0.0802 H   0  0  0  0  0  0  0  0  0  0  0  0
    3.6682    0.2994    2.5681 H   0  0  0  0  0  0  0  0  0  0  0  0
    2.1540   -4.2369    0.8595 H   0  0  0  0  0  0  0  0  0  0  0  0
    1.1059   -2.9301    1.3990 H   0  0  0  0  0  0  0  0  0  0  0  0
    1.5167   -3.1405   -0.3606 H   0  0  0  0  0  0  0  0  0  0  0  0
    2.8252    0.5788   -3.4080 H   0  0  0  0  0  0  0  0  0  0  0  0
    3.8446    2.0737   -3.2041 H   0  0  0  0  0  0  0  0  0  0  0  0
    4.4852    0.6346   -3.9860 H   0  0  0  0  0  0  0  0  0  0  0  0
    5.8501   -0.0647    2.4588 H   0  0  0  0  0  0  0  0  0  0  0  0
    4.8312   -1.5593    2.2543 H   0  0  0  0  0  0  0  0  0  0  0  0
    6.4982   -1.5106    1.6946 H   0  0  0  0  0  0  0  0  0  0  0  0
  1 20  1  0  0  0  0
  1 26  1  0  0  0  0
  2 22  1  0  0  0  0
  2 27  1  0  0  0  0
  3 24  1  0  0  0  0
  3 28  1  0  0  0  0
  4  8  1  0  0  0  0
  4 10  1  0  0  0  0
  4 35  1  0  0  0  0
  5  6  1  0  0  0  0
  5  7  1  0  0  0  0
  5 29  1  0  0  0  0
  5 30  1  0  0  0  0
  6  8  1  0  0  0  0
  6 11  2  0  0  0  0
  7  9  1  0  0  0  0
  7 31  1  0  0  0  0
  7 32  1  0  0  0  0
  8 12  2  0  0  0  0
  9 14  2  0  0  0  0
  9 16  1  0  0  0  0
 10 13  1  0  0  0  0
 10 33  1  0  0  0  0
 10 34  1  0  0  0  0
 11 15  1  0  0  0  0
 11 36  1  0  0  0  0
 12 17  1  0  0  0  0
 12 37  1  0  0  0  0
 13 18  2  0  0  0  0
 13 19  1  0  0  0  0
 14 20  1  0  0  0  0
 14 38  1  0  0  0  0
 15 17  2  0  0  0  0
 15 39  1  0  0  0  0
 16 21  2  0  0  0  0
 16 40  1  0  0  0  0
 17 41  1  0  0  0  0
 18 22  1  0  0  0  0
 18 42  1  0  0  0  0
 19 25  2  0  0  0  0
 19 43  1  0  0  0  0
 20 23  2  0  0  0  0
 21 23  1  0  0  0  0
 21 44  1  0  0  0  0
 22 24  2  0  0  0  0
 23 45  1  0  0  0  0
 24 25  1  0  0  0  0
 25 46  1  0  0  0  0
 26 47  1  0  0  0  0
 26 48  1  0  0  0  0
 26 49  1  0  0  0  0
 27 50  1  0  0  0  0
 27 51  1  0  0  0  0
 27 52  1  0  0  0  0
 28 53  1  0  0  0  0
 28 54  1  0  0  0  0
 28 55  1  0  0  0  0
M  END
> <PUBCHEM_COMPOUND_CID>
24808344

> <PUBCHEM_CONFORMER_RMSD>
1.2

> <PUBCHEM_CONFORMER_DIVERSEORDER>
2
81
162
116
139
122
97
68
119
173
176
41
38
114
52
70
102
80
207
169
16
178
200
49
108
147
211
202
78
161
163
54
98
175
96
86
77
148
17
195
109
93
134
124
111
44
23
18
167
174
34
198
185
153
67
135
57
32
42
88
26
194
118
190
206
146
205
22
63
160
123
60
112
33
145
165
209
74
90
136
121
188
183
104
100
21
143
103
82
51
62
30
11
55
141
106
15
140
187
94
204
171
46
137
132
152
131
45
199
95
83
191
166
105
79
193
36
47
113
56
120
149
164
151
172
127
37
203
7
58
40
91
155
69
64
29
158
168
84
129
20
110
5
189
181
184
182
28
208
210
89
50
35
53
10
43
142
157
159
25
19
75
71
31
201
133
126
61
125
66
14
128
177
1
130
3
117
6
101
24
99
12
13
39
150
115
179
180
4
72
87
170
197
192
144
107
76
65
154
138
27
156
85
186
8
196
9
212
59
73
48
92

> <PUBCHEM_MMFF94_PARTIAL_CHARGES>
40
1 -0.36
10 0.51
11 -0.15
12 -0.15
13 -0.14
14 -0.15
15 -0.15
16 -0.15
17 -0.15
18 -0.15
19 -0.15
2 -0.36
20 0.08
21 -0.15
22 0.08
23 -0.15
24 0.08
25 -0.15
26 0.28
27 0.28
28 0.28
3 -0.36
35 0.4
36 0.15
37 0.15
38 0.15
39 0.15
4 -0.87
40 0.15
41 0.15
42 0.15
43 0.15
44 0.15
45 0.15
46 0.15
5 0.14
6 -0.14
7 0.14
8 0.1
9 -0.14

> <PUBCHEM_EFFECTIVE_ROTOR_COUNT>
9

> <PUBCHEM_PHARMACOPHORE_FEATURES>
8
1 1 acceptor
1 2 acceptor
1 3 acceptor
1 4 cation
1 4 donor
6 13 18 19 22 24 25 rings
6 6 8 11 12 15 17 rings
6 9 14 16 20 21 23 rings

> <PUBCHEM_HEAVY_ATOM_COUNT>
28

> <PUBCHEM_ATOM_DEF_STEREO_COUNT>
0

> <PUBCHEM_ATOM_UDEF_STEREO_COUNT>
0

> <PUBCHEM_BOND_DEF_STEREO_COUNT>
0

> <PUBCHEM_BOND_UDEF_STEREO_COUNT>
0

> <PUBCHEM_ISOTOPIC_ATOM_COUNT>
0

> <PUBCHEM_COMPONENT_COUNT>
1

> <PUBCHEM_CACTVS_TAUTO_COUNT>
1

> <PUBCHEM_CONFORMER_ID>
017A8B9800000002

> <PUBCHEM_MMFF94_ENERGY>
113.3204

> <PUBCHEM_FEATURE_SELFOVERLAP>
40.601

> <PUBCHEM_SHAPE_FINGERPRINT>
10483366 6 18339905109803998263
10940486 97 18334579049166643076
11049842 53 17398405130557506956
12788726 201 18191597555888018006
13726171 33 18054819370672280812
13785724 45 17692553503776248047
138480 1 17042885686483120281
14251757 5 18267043793370746348
14659021 117 18193543683148129872
14725015 67 18198332047365298075
14866123 147 18412820305251875507
15320294 125 18115574938516070802
15400415 2 18195520399055469200
15439362 3 17329138079993624621
15664445 248 17114388597989495969
15927050 60 18198053682213766207
15961568 22 16681758758889151191
16719943 64 18339635629541953312
17627616 140 18122903131928435463
19930381 70 17330549848522077179
20775530 9 17909272725519012815
21133410 52 16183521215587861856
21344244 246 17977365167828421381
22849339 104 18268731487921965077
22956985 138 17543353752957480883
23559900 14 16754650414343088643
24771750 20 17615987516932878445
3027735 51 18341881992633838991
314173 41 17401767918045171787
3298306 158 18196937660742208333
338550 245 18263085422909490826
508706 21 18272376377262259566
5265222 85 18410581656696894992
5309563 4 17404020821586318031
5385378 56 17837215879418357321
602551 16 18413384324641740424
613672 6 17692508414760694419
653340 110 18268411590394183978
9961470 85 18196922276190583186
9981440 41 18265617568350660089

> <PUBCHEM_SHAPE_MULTIPOLES>
553.64
10.06
7.59
1.54
9.63
6.49
1.05
-3.01
-0.16
-11.29
-0.26
3.17
-0.38
-1.71

> <PUBCHEM_SHAPE_SELFOVERLAP>
1178.755

> <PUBCHEM_SHAPE_VOLUME>
308.3

> <PUBCHEM_COORDINATE_TYPE>
2
5
10

$$$$