25157848
  -OEChem-03242010103D

 75 78  0     1  0  0  0  0  0999 V2000
    6.2360   -0.5063   -1.7007 O   0  0  0  0  0  0  0  0  0  0  0  0
    6.1111   -2.0582    0.6000 O   0  0  0  0  0  0  0  0  0  0  0  0
   -3.8964    1.6480   -0.6054 O   0  0  0  0  0  0  0  0  0  0  0  0
    0.9470   -1.3686   -0.2908 O   0  0  0  0  0  0  0  0  0  0  0  0
    1.5263    2.4195    0.8891 N   0  0  2  0  0  0  0  0  0  0  0  0
    1.9537    2.1770    2.2726 C   0  0  0  0  0  0  0  0  0  0  0  0
    2.6940    2.4309   -0.0098 C   0  0  0  0  0  0  0  0  0  0  0  0
    0.7922    3.6801    0.7861 C   0  0  0  0  0  0  0  0  0  0  0  0
    2.5334    0.7645    2.3985 C   0  0  0  0  0  0  0  0  0  0  0  0
    3.5802    1.2162    0.1453 C   0  0  0  0  0  0  0  0  0  0  0  0
    3.5344    0.4445    1.3190 C   0  0  0  0  0  0  0  0  0  0  0  0
   -0.0744    3.6882   -0.4722 C   0  0  0  0  0  0  0  0  0  0  0  0
   -1.1054    2.5574   -0.4411 C   0  0  0  0  0  0  0  0  0  0  0  0
    4.5023    0.8914   -0.8589 C   0  0  0  0  0  0  0  0  0  0  0  0
    4.3839   -0.6611    1.4554 C   0  0  0  0  0  0  0  0  0  0  0  0
   -1.9518    2.5417   -1.7173 C   0  0  0  0  0  0  0  0  0  0  0  0
    5.3510   -0.2054   -0.7097 C   0  0  0  0  0  0  0  0  0  0  0  0
    5.2902   -0.9820    0.4453 C   0  0  0  0  0  0  0  0  0  0  0  0
   -3.0084    1.4438   -1.6948 C   0  0  0  0  0  0  0  0  0  0  0  0
   -4.9056    0.7330   -0.4494 C   0  0  0  0  0  0  0  0  0  0  0  0
   -5.0123   -0.0185    0.7209 C   0  0  0  0  0  0  0  0  0  0  0  0
   -4.0309    0.1568    1.8323 C   0  0  0  0  0  0  0  0  0  0  0  0
   -3.2674   -1.1294    2.2025 C   0  0  0  0  0  0  0  0  0  0  0  0
    6.2341    0.3387   -2.8497 C   0  0  0  0  0  0  0  0  0  0  0  0
    5.6287   -3.3145    0.1273 C   0  0  0  0  0  0  0  0  0  0  0  0
   -5.8314    0.5574   -1.4777 C   0  0  0  0  0  0  0  0  0  0  0  0
   -6.0447   -0.9457    0.8626 C   0  0  0  0  0  0  0  0  0  0  0  0
   -2.4362   -1.6754    1.0671 C   0  0  0  0  0  0  0  0  0  0  0  0
   -6.8638   -0.3698   -1.3361 C   0  0  0  0  0  0  0  0  0  0  0  0
   -6.9705   -1.1214   -0.1659 C   0  0  0  0  0  0  0  0  0  0  0  0
   -1.1126   -1.2641    0.9107 C   0  0  0  0  0  0  0  0  0  0  0  0
   -2.9920   -2.5917    0.1742 C   0  0  0  0  0  0  0  0  0  0  0  0
   -0.3447   -1.7693   -0.1384 C   0  0  0  0  0  0  0  0  0  0  0  0
   -2.2241   -3.0968   -0.8750 C   0  0  0  0  0  0  0  0  0  0  0  0
   -0.9005   -2.6855   -1.0313 C   0  0  0  0  0  0  0  0  0  0  0  0
    1.6749   -1.9254   -1.3846 C   0  0  0  0  0  0  0  0  0  0  0  0
    1.1037    2.2515    2.9619 H   0  0  0  0  0  0  0  0  0  0  0  0
    2.6951    2.9236    2.5879 H   0  0  0  0  0  0  0  0  0  0  0  0
    3.3157    3.3194    0.1648 H   0  0  0  0  0  0  0  0  0  0  0  0
    2.3496    2.4552   -1.0496 H   0  0  0  0  0  0  0  0  0  0  0  0
    0.1193    3.8012    1.6453 H   0  0  0  0  0  0  0  0  0  0  0  0
    1.4632    4.5482    0.7956 H   0  0  0  0  0  0  0  0  0  0  0  0
    1.7223    0.0282    2.3404 H   0  0  0  0  0  0  0  0  0  0  0  0
    3.0050    0.6641    3.3834 H   0  0  0  0  0  0  0  0  0  0  0  0
   -0.6002    4.6499   -0.5252 H   0  0  0  0  0  0  0  0  0  0  0  0
    0.5359    3.6240   -1.3795 H   0  0  0  0  0  0  0  0  0  0  0  0
   -1.7495    2.6801    0.4376 H   0  0  0  0  0  0  0  0  0  0  0  0
   -0.6086    1.5856   -0.3461 H   0  0  0  0  0  0  0  0  0  0  0  0
    4.5086    1.5356   -1.7321 H   0  0  0  0  0  0  0  0  0  0  0  0
    4.3375   -1.2730    2.3533 H   0  0  0  0  0  0  0  0  0  0  0  0
   -1.3046    2.4040   -2.5911 H   0  0  0  0  0  0  0  0  0  0  0  0
   -2.4492    3.5138   -1.8220 H   0  0  0  0  0  0  0  0  0  0  0  0
   -3.5507    1.4735   -2.6463 H   0  0  0  0  0  0  0  0  0  0  0  0
   -2.5283    0.4624   -1.6016 H   0  0  0  0  0  0  0  0  0  0  0  0
   -3.3004    0.9423    1.6064 H   0  0  0  0  0  0  0  0  0  0  0  0
   -4.5751    0.5105    2.7179 H   0  0  0  0  0  0  0  0  0  0  0  0
   -3.9546   -1.9077    2.5575 H   0  0  0  0  0  0  0  0  0  0  0  0
   -2.6117   -0.9162    3.0570 H   0  0  0  0  0  0  0  0  0  0  0  0
    6.9962   -0.0478   -3.5344 H   0  0  0  0  0  0  0  0  0  0  0  0
    6.5253    1.3641   -2.5975 H   0  0  0  0  0  0  0  0  0  0  0  0
    5.2779    0.2943   -3.3821 H   0  0  0  0  0  0  0  0  0  0  0  0
    6.3966   -4.0697    0.3157 H   0  0  0  0  0  0  0  0  0  0  0  0
    5.4351   -3.2725   -0.9493 H   0  0  0  0  0  0  0  0  0  0  0  0
    4.7170   -3.6005    0.6615 H   0  0  0  0  0  0  0  0  0  0  0  0
   -5.7772    1.1457   -2.3893 H   0  0  0  0  0  0  0  0  0  0  0  0
   -6.1518   -1.5317    1.7713 H   0  0  0  0  0  0  0  0  0  0  0  0
   -7.5875   -0.5033   -2.1348 H   0  0  0  0  0  0  0  0  0  0  0  0
   -7.7764   -1.8409   -0.0542 H   0  0  0  0  0  0  0  0  0  0  0  0
   -0.6759   -0.5467    1.6008 H   0  0  0  0  0  0  0  0  0  0  0  0
   -4.0147   -2.9378    0.2895 H   0  0  0  0  0  0  0  0  0  0  0  0
   -2.6569   -3.8130   -1.5675 H   0  0  0  0  0  0  0  0  0  0  0  0
   -0.3613   -3.1178   -1.8672 H   0  0  0  0  0  0  0  0  0  0  0  0
    2.6819   -1.5033   -1.3602 H   0  0  0  0  0  0  0  0  0  0  0  0
    1.2342   -1.6406   -2.3459 H   0  0  0  0  0  0  0  0  0  0  0  0
    1.7836   -3.0105   -1.2833 H   0  0  0  0  0  0  0  0  0  0  0  0
  1 17  1  0  0  0  0
  1 24  1  0  0  0  0
  2 18  1  0  0  0  0
  2 25  1  0  0  0  0
  3 19  1  0  0  0  0
  3 20  1  0  0  0  0
  4 33  1  0  0  0  0
  4 36  1  0  0  0  0
  5  6  1  0  0  0  0
  5  7  1  0  0  0  0
  5  8  1  0  0  0  0
  6  9  1  0  0  0  0
  6 37  1  0  0  0  0
  6 38  1  0  0  0  0
  7 10  1  0  0  0  0
  7 39  1  0  0  0  0
  7 40  1  0  0  0  0
  8 12  1  0  0  0  0
  8 41  1  0  0  0  0
  8 42  1  0  0  0  0
  9 11  1  0  0  0  0
  9 43  1  0  0  0  0
  9 44  1  0  0  0  0
 10 11  1  0  0  0  0
 10 14  2  0  0  0  0
 11 15  2  0  0  0  0
 12 13  1  0  0  0  0
 12 45  1  0  0  0  0
 12 46  1  0  0  0  0
 13 16  1  0  0  0  0
 13 47  1  0  0  0  0
 13 48  1  0  0  0  0
 14 17  1  0  0  0  0
 14 49  1  0  0  0  0
 15 18  1  0  0  0  0
 15 50  1  0  0  0  0
 16 19  1  0  0  0  0
 16 51  1  0  0  0  0
 16 52  1  0  0  0  0
 17 18  2  0  0  0  0
 19 53  1  0  0  0  0
 19 54  1  0  0  0  0
 20 21  1  0  0  0  0
 20 26  2  0  0  0  0
 21 22  1  0  0  0  0
 21 27  2  0  0  0  0
 22 23  1  0  0  0  0
 22 55  1  0  0  0  0
 22 56  1  0  0  0  0
 23 28  1  0  0  0  0
 23 57  1  0  0  0  0
 23 58  1  0  0  0  0
 24 59  1  0  0  0  0
 24 60  1  0  0  0  0
 24 61  1  0  0  0  0
 25 62  1  0  0  0  0
 25 63  1  0  0  0  0
 25 64  1  0  0  0  0
 26 29  1  0  0  0  0
 26 65  1  0  0  0  0
 27 30  1  0  0  0  0
 27 66  1  0  0  0  0
 28 31  2  0  0  0  0
 28 32  1  0  0  0  0
 29 30  2  0  0  0  0
 29 67  1  0  0  0  0
 30 68  1  0  0  0  0
 31 33  1  0  0  0  0
 31 69  1  0  0  0  0
 32 34  2  0  0  0  0
 32 70  1  0  0  0  0
 33 35  2  0  0  0  0
 34 35  1  0  0  0  0
 34 71  1  0  0  0  0
 35 72  1  0  0  0  0
 36 73  1  0  0  0  0
 36 74  1  0  0  0  0
 36 75  1  0  0  0  0
M  END
> <PUBCHEM_COMPOUND_CID>
25157848

> <PUBCHEM_CONFORMER_RMSD>
1.6

> <PUBCHEM_CONFORMER_DIVERSEORDER>
1
114
190
102
165
4
144
49
180
167
86
191
179
90
19
220
136
91
2
158
219
62
75
150
23
164
44
195
107
8
88
217
20
43
169
94
192
187
154
98
6
133
128
96
85
140
100
214
168
183
182
196
13
30
116
22
160
106
67
99
18
33
50
97
123
45
63
40
21
103
204
37
134
159
206
119
5
120
211
25
181
110
108
157
80
26
151
216
166
129
194
170
51
41
125
218
34
69
199
139
137
155
93
176
29
16
73
210
203
10
79
186
11
130
141
205
115
207
68
174
70
173
171
105
35
58
146
46
200
14
177
28
57
81
56
48
197
148
15
126
32
42
65
152
52
72
76
61
87
188
60
121
117
113
122
36
209
212
172
95
193
138
92
83
189
215
118
38
17
213
112
147
178
27
131
198
55
54
104
111
101
201
161
124
153
208
175
3
185
7
71
145
132
184
77
12
149
64
9
24
135
143
78
142
39
74
84
127
162
59
53
47
31
156
89
163
202
109
82
66

> <PUBCHEM_MMFF94_PARTIAL_CHARGES>
43
1 -0.36
10 -0.14
11 -0.14
14 -0.15
15 -0.15
17 0.08
18 0.08
19 0.28
2 -0.36
20 0.08
21 -0.14
22 0.14
23 0.14
24 0.28
25 0.28
26 -0.15
27 -0.15
28 -0.14
29 -0.15
3 -0.36
30 -0.15
31 -0.15
32 -0.15
33 0.08
34 -0.15
35 -0.15
36 0.28
4 -0.36
49 0.15
5 -0.81
50 0.15
6 0.27
65 0.15
66 0.15
67 0.15
68 0.15
69 0.15
7 0.41
70 0.15
71 0.15
72 0.15
8 0.27
9 0.14

> <PUBCHEM_EFFECTIVE_ROTOR_COUNT>
13.8

> <PUBCHEM_PHARMACOPHORE_FEATURES>
9
1 1 acceptor
1 2 acceptor
1 3 acceptor
1 4 acceptor
1 5 cation
6 10 11 14 15 17 18 rings
6 20 21 26 27 29 30 rings
6 28 31 32 33 34 35 rings
6 5 6 7 9 10 11 rings

> <PUBCHEM_HEAVY_ATOM_COUNT>
36

> <PUBCHEM_ATOM_DEF_STEREO_COUNT>
0

> <PUBCHEM_ATOM_UDEF_STEREO_COUNT>
0

> <PUBCHEM_BOND_DEF_STEREO_COUNT>
0

> <PUBCHEM_BOND_UDEF_STEREO_COUNT>
0

> <PUBCHEM_ISOTOPIC_ATOM_COUNT>
0

> <PUBCHEM_COMPONENT_COUNT>
1

> <PUBCHEM_CACTVS_TAUTO_COUNT>
1

> <PUBCHEM_CONFORMER_ID>
017FE0D800000001

> <PUBCHEM_MMFF94_ENERGY>
119.5819

> <PUBCHEM_FEATURE_SELFOVERLAP>
45.699

> <PUBCHEM_SHAPE_FINGERPRINT>
11513181 2 17838614818146403516
11828532 37 18114186388711955411
12128747 34 17822571607757677611
12166972 35 18060137669586119649
12422481 6 18119538880562674419
12596602 18 16153712033001596699
12645989 146 18412822473656913775
13402501 40 18408600362228265597
13782708 43 18342452638746745967
15001296 14 16805605935769443565
15150948 74 18413388757190297670
15183329 4 18202007628969229154
15264996 44 18201169784181969502
15274700 232 16612512616042041230
15721738 202 14129926789412771561
16067689 68 15410055033306168998
20764821 26 18339918320184501476
340366 18 18269553995412055835
437815 12 17988652903968909336
508706 21 18200887200855600193
563151 74 16771803688768268144
6086070 43 18272933868433988678

> <PUBCHEM_SHAPE_MULTIPOLES>
712.4
16.75
4.03
2.16
1.38
1.17
-0.07
-6.43
4.46
-1.45
0.31
-1.08
0.45
1.21

> <PUBCHEM_SHAPE_SELFOVERLAP>
1504.277

> <PUBCHEM_SHAPE_VOLUME>
401

> <PUBCHEM_COORDINATE_TYPE>
2
5
10

$$$$