122185095
  -OEChem-03242010103D

 64 68  0     0  0  0  0  0  0999 V2000
   -9.1443   -0.6260    0.0196 O   0  0  0  0  0  0  0  0  0  0  0  0
   -0.9521    1.9132   -0.0453 O   0  0  0  0  0  0  0  0  0  0  0  0
   -0.4400   -2.6668    0.0528 O   0  0  0  0  0  0  0  0  0  0  0  0
   -3.0375   -1.8124    0.0395 O   0  0  0  0  0  0  0  0  0  0  0  0
    4.7752    2.6554    2.0475 O   0  0  0  0  0  0  0  0  0  0  0  0
    5.3238   -2.1167   -2.0372 O   0  0  0  0  0  0  0  0  0  0  0  0
    5.8758   -3.8141    0.0941 O   0  0  0  0  0  0  0  0  0  0  0  0
    4.9475    4.4343   -0.0817 O   0  0  0  0  0  0  0  0  0  0  0  0
   -7.8151   -2.5205    0.0471 O   0  0  0  0  0  0  0  0  0  0  0  0
   -1.1636   -0.4349   -0.0190 N   0  0  0  0  0  0  0  0  0  0  0  0
   -3.3235    0.5042   -0.0234 N   0  0  0  0  0  0  0  0  0  0  0  0
    1.1059   -0.8500    0.0123 C   0  0  0  0  0  0  0  0  0  0  0  0
    0.9560    0.4833   -0.0244 C   0  0  0  0  0  0  0  0  0  0  0  0
   -0.2439   -1.4610    0.0278 C   0  0  0  0  0  0  0  0  0  0  0  0
   -0.4960    0.7803   -0.0423 C   0  0  0  0  0  0  0  0  0  0  0  0
    1.9981    1.5123   -0.0367 C   0  0  0  0  0  0  0  0  0  0  0  0
    2.3506   -1.6215    0.0310 C   0  0  0  0  0  0  0  0  0  0  0  0
   -2.5724   -0.6730   -0.0104 C   0  0  0  0  0  0  0  0  0  0  0  0
   -7.4864    0.9411   -0.0140 C   0  0  0  0  0  0  0  0  0  0  0  0
   -6.9073   -0.3113    0.0056 C   0  0  0  0  0  0  0  0  0  0  0  0
   -4.7327    0.6386   -0.0199 C   0  0  0  0  0  0  0  0  0  0  0  0
    3.2588   -1.5047   -1.0211 C   0  0  0  0  0  0  0  0  0  0  0  0
    2.9037    1.5999    1.0205 C   0  0  0  0  0  0  0  0  0  0  0  0
    2.0848    2.4050   -1.1051 C   0  0  0  0  0  0  0  0  0  0  0  0
    2.6278   -2.4731    1.1004 C   0  0  0  0  0  0  0  0  0  0  0  0
   -5.5378   -0.5010    0.0031 C   0  0  0  0  0  0  0  0  0  0  0  0
   -8.9546    0.8114   -0.0066 C   0  0  0  0  0  0  0  0  0  0  0  0
   -6.6991    2.0774   -0.0367 C   0  0  0  0  0  0  0  0  0  0  0  0
   -5.3095    1.9200   -0.0396 C   0  0  0  0  0  0  0  0  0  0  0  0
    4.4444   -2.2394   -1.0039 C   0  0  0  0  0  0  0  0  0  0  0  0
    3.8963    2.5799    1.0094 C   0  0  0  0  0  0  0  0  0  0  0  0
    3.8132   -3.2080    1.1175 C   0  0  0  0  0  0  0  0  0  0  0  0
    3.0772    3.3852   -1.1161 C   0  0  0  0  0  0  0  0  0  0  0  0
   -7.9597   -1.3146    0.0268 C   0  0  0  0  0  0  0  0  0  0  0  0
    4.7216   -3.0911    0.0653 C   0  0  0  0  0  0  0  0  0  0  0  0
    3.9830    3.4726   -0.0589 C   0  0  0  0  0  0  0  0  0  0  0  0
    4.9649   -1.2250   -3.0910 C   0  0  0  0  0  0  0  0  0  0  0  0
    4.6178    1.7054    3.0999 C   0  0  0  0  0  0  0  0  0  0  0  0
    4.9665    5.3064   -1.2103 C   0  0  0  0  0  0  0  0  0  0  0  0
    6.0821   -4.6608    1.2233 C   0  0  0  0  0  0  0  0  0  0  0  0
    2.9909   -0.8372   -1.8338 H   0  0  0  0  0  0  0  0  0  0  0  0
    2.7864    0.8890    1.8320 H   0  0  0  0  0  0  0  0  0  0  0  0
    1.9322   -2.5723    1.9303 H   0  0  0  0  0  0  0  0  0  0  0  0
    1.3889    2.3475   -1.9387 H   0  0  0  0  0  0  0  0  0  0  0  0
   -2.8160    1.3833   -0.0460 H   0  0  0  0  0  0  0  0  0  0  0  0
   -5.1778   -1.5176    0.0173 H   0  0  0  0  0  0  0  0  0  0  0  0
   -9.4098    1.2411    0.8896 H   0  0  0  0  0  0  0  0  0  0  0  0
   -9.4161    1.2090   -0.9144 H   0  0  0  0  0  0  0  0  0  0  0  0
   -7.1416    3.0675   -0.0522 H   0  0  0  0  0  0  0  0  0  0  0  0
   -4.6789    2.8061   -0.0575 H   0  0  0  0  0  0  0  0  0  0  0  0
    3.9621   -3.8481    1.9802 H   0  0  0  0  0  0  0  0  0  0  0  0
    3.0847    4.0429   -1.9784 H   0  0  0  0  0  0  0  0  0  0  0  0
    5.7784   -1.2489   -3.8236 H   0  0  0  0  0  0  0  0  0  0  0  0
    4.8877   -0.1911   -2.7370 H   0  0  0  0  0  0  0  0  0  0  0  0
    4.0602   -1.5577   -3.6111 H   0  0  0  0  0  0  0  0  0  0  0  0
    5.4015    1.9092    3.8370 H   0  0  0  0  0  0  0  0  0  0  0  0
    4.7744    0.6805    2.7461 H   0  0  0  0  0  0  0  0  0  0  0  0
    3.6588    1.8283    3.6148 H   0  0  0  0  0  0  0  0  0  0  0  0
    4.0518    5.9057   -1.2728 H   0  0  0  0  0  0  0  0  0  0  0  0
    6.1567   -4.0844    2.1517 H   0  0  0  0  0  0  0  0  0  0  0  0
    5.1726    4.7615   -2.1379 H   0  0  0  0  0  0  0  0  0  0  0  0
    5.3233   -5.4487    1.2811 H   0  0  0  0  0  0  0  0  0  0  0  0
    7.0467   -5.1590    1.0804 H   0  0  0  0  0  0  0  0  0  0  0  0
    5.7954    6.0065   -1.0625 H   0  0  0  0  0  0  0  0  0  0  0  0
  1 27  1  0  0  0  0
  1 34  1  0  0  0  0
  2 15  2  0  0  0  0
  3 14  2  0  0  0  0
  4 18  2  0  0  0  0
  5 31  1  0  0  0  0
  5 38  1  0  0  0  0
  6 30  1  0  0  0  0
  6 37  1  0  0  0  0
  7 35  1  0  0  0  0
  7 40  1  0  0  0  0
  8 36  1  0  0  0  0
  8 39  1  0  0  0  0
  9 34  2  0  0  0  0
 10 14  1  0  0  0  0
 10 15  1  0  0  0  0
 10 18  1  0  0  0  0
 11 18  1  0  0  0  0
 11 21  1  0  0  0  0
 11 45  1  0  0  0  0
 12 13  2  0  0  0  0
 12 14  1  0  0  0  0
 12 17  1  0  0  0  0
 13 15  1  0  0  0  0
 13 16  1  0  0  0  0
 16 23  2  0  0  0  0
 16 24  1  0  0  0  0
 17 22  2  0  0  0  0
 17 25  1  0  0  0  0
 19 20  2  0  0  0  0
 19 27  1  0  0  0  0
 19 28  1  0  0  0  0
 20 26  1  0  0  0  0
 20 34  1  0  0  0  0
 21 26  2  0  0  0  0
 21 29  1  0  0  0  0
 22 30  1  0  0  0  0
 22 41  1  0  0  0  0
 23 31  1  0  0  0  0
 23 42  1  0  0  0  0
 24 33  2  0  0  0  0
 24 44  1  0  0  0  0
 25 32  2  0  0  0  0
 25 43  1  0  0  0  0
 26 46  1  0  0  0  0
 27 47  1  0  0  0  0
 27 48  1  0  0  0  0
 28 29  2  0  0  0  0
 28 49  1  0  0  0  0
 29 50  1  0  0  0  0
 30 35  2  0  0  0  0
 31 36  2  0  0  0  0
 32 35  1  0  0  0  0
 32 51  1  0  0  0  0
 33 36  1  0  0  0  0
 33 52  1  0  0  0  0
 37 53  1  0  0  0  0
 37 54  1  0  0  0  0
 37 55  1  0  0  0  0
 38 56  1  0  0  0  0
 38 57  1  0  0  0  0
 38 58  1  0  0  0  0
 39 59  1  0  0  0  0
 39 61  1  0  0  0  0
 39 64  1  0  0  0  0
 40 60  1  0  0  0  0
 40 62  1  0  0  0  0
 40 63  1  0  0  0  0
M  END
> <PUBCHEM_COMPOUND_CID>
122185095

> <PUBCHEM_CONFORMER_RMSD>
1

> <PUBCHEM_CONFORMER_DIVERSEORDER>
2
56
50
40
16
41
42
12
63
9
53
14
19
25
52
32
51
60
59
47
21
49
57
7
54
43
6
44
10
13
26
38
28
45
62
48
15
58
4
31
55
34
33
37
8
20
1
18
46
11
24
29
22
5
35
61
30
39
23
17
27
3
36

> <PUBCHEM_MMFF94_PARTIAL_CHARGES>
50
1 -0.43
10 -0.18
11 -0.55
12 -0.01
13 -0.01
14 0.62
15 0.62
16 0.03
17 0.03
18 0.69
19 -0.14
2 -0.57
20 0.09
21 0.12
22 -0.15
23 -0.15
24 -0.15
25 -0.15
26 -0.15
27 0.42
28 -0.15
29 -0.15
3 -0.57
30 0.08
31 0.08
32 -0.15
33 -0.15
34 0.63
35 0.08
36 0.08
37 0.28
38 0.28
39 0.28
4 -0.57
40 0.28
41 0.15
42 0.15
43 0.15
44 0.15
45 0.37
46 0.15
49 0.15
5 -0.36
50 0.15
51 0.15
52 0.15
6 -0.36
7 -0.36
8 -0.36
9 -0.57

> <PUBCHEM_EFFECTIVE_ROTOR_COUNT>
9.6

> <PUBCHEM_PHARMACOPHORE_FEATURES>
14
1 11 donor
1 2 acceptor
1 3 acceptor
1 4 acceptor
1 5 acceptor
1 6 acceptor
1 7 acceptor
1 8 acceptor
1 9 acceptor
5 1 19 20 27 34 rings
5 10 12 13 14 15 rings
6 16 23 24 31 33 36 rings
6 17 22 25 30 32 35 rings
6 19 20 21 26 28 29 rings

> <PUBCHEM_HEAVY_ATOM_COUNT>
40

> <PUBCHEM_ATOM_DEF_STEREO_COUNT>
0

> <PUBCHEM_ATOM_UDEF_STEREO_COUNT>
0

> <PUBCHEM_BOND_DEF_STEREO_COUNT>
0

> <PUBCHEM_BOND_UDEF_STEREO_COUNT>
0

> <PUBCHEM_ISOTOPIC_ATOM_COUNT>
0

> <PUBCHEM_COMPONENT_COUNT>
1

> <PUBCHEM_CACTVS_TAUTO_COUNT>
5

> <PUBCHEM_CONFORMER_ID>
0748658700000002

> <PUBCHEM_MMFF94_ENERGY>
156.7177

> <PUBCHEM_FEATURE_SELFOVERLAP>
71.161

> <PUBCHEM_SHAPE_FINGERPRINT>
10050765 1 18338236080738374047
10169797 241 18266200403812783211
10411042 1 18192710038987031722
10721379 63 18411427215582470964
11297750 10 17969493819497475532
11607047 191 17130125733095969808
12166972 35 18341611460970080755
12522641 24 17704067400009324224
12741549 16 17201907143240417010
12977781 61 17750818686072874051
13383668 362 18341316881990764634
13540713 4 18118985790757334154
1361 4 18340485694814625879
13692115 27 18056202371778868268
13782708 43 18260548901461650207
14068700 675 18198342853534176440
14118638 360 18272934964441783881
14294032 229 17911243037761619071
15347591 1 18408603665743697453
15439362 3 18337392764093901140
15927050 60 18267024053759426798
16990366 60 18117269264602607882
20554085 129 17844523508494978656
20578428 11 18410017675771598228
20771845 65 17274543114611484634
21130935 74 18412262857552558635
22311459 1 18266742385720340007
23522609 53 17901417539752239725
23559900 14 18335701619908601042
244849 19 17822875163176334867
24771750 20 18337681901028310180
249999 5 18410572920559062432
3411729 13 18411133684184057136
4073 2 18188773989323153771
4093350 32 17561080311137814110
4112364 45 16629945712438599128
4516262 110 18263356065910733621
45377200 153 15696876055364440135
5104073 3 18413110542325542569
5109719 28 18193847161374705665
513532 50 18131077043213935380
9831232 110 18336826386318656551
9962374 69 18271516533880056815

> <PUBCHEM_SHAPE_MULTIPOLES>
760.4
22.95
5.87
1.6
60.4
2.6
-0.02
-4.48
-0.02
-16.05
-0.08
-4.51
0.25
0.21

> <PUBCHEM_SHAPE_SELFOVERLAP>
1688.664

> <PUBCHEM_SHAPE_VOLUME>
408.2

> <PUBCHEM_COORDINATE_TYPE>
2
5
10

$$$$