188
 OpenBabel03292022033D

171174  0  0  1  0  0  0  0  0999 V2000
    5.8813    0.0236   -3.2124 C   0  0  0  0  0  0  0  0  0  0  0  0
    5.2960    1.3286   -3.7746 C   0  0  0  0  0  0  0  0  0  0  0  0
    6.1623    2.6496   -4.1574 C   0  0  2  0  0  0  0  0  0  0  0  0
    7.5677    2.4480   -3.5454 C   0  0  0  0  0  0  0  0  0  0  0  0
    5.4367    3.9060   -5.2972 C   0  0  2  0  0  0  0  0  0  0  0  0
    5.7787    4.5447   -6.8647 N   0  0  0  0  0  0  0  0  0  0  0  0
    5.9527    5.4781   -7.9036 C   0  0  0  0  0  0  0  0  0  0  0  0
    6.5277    4.7265   -8.7201 O   0  0  0  0  0  0  0  0  0  0  0  0
    5.9398    7.2544   -8.7178 C   0  0  2  0  0  0  0  0  0  0  0  0
    7.1728    8.2355   -8.6037 C   0  0  0  0  0  0  0  0  0  0  0  0
    6.6840    9.6411   -8.2514 C   0  0  0  0  0  0  0  0  0  0  0  0
    5.2786    9.7559   -8.7507 C   0  0  0  0  0  0  0  0  0  0  0  0
    4.9535    8.4960   -9.3961 N   0  0  0  0  0  0  0  0  0  0  0  0
    4.2928    8.8869  -10.6600 C   0  0  0  0  0  0  0  0  0  0  0  0
    3.5371    9.8524  -10.6635 O   0  0  0  0  0  0  0  0  0  0  0  0
    4.5050    8.1841  -12.0279 C   0  0  2  0  0  0  0  0  0  0  0  0
    4.0309    8.7560  -13.3944 C   0  0  0  0  0  0  0  0  0  0  0  0
    4.7030    9.8487  -14.2042 C   0  0  0  0  0  0  0  0  0  0  0  0
    5.8687    9.6265  -14.9544 C   0  0  0  0  0  0  0  0  0  0  0  0
    6.2940   10.5657  -15.9103 C   0  0  0  0  0  0  0  0  0  0  0  0
    5.5586   11.7299  -16.1310 C   0  0  0  0  0  0  0  0  0  0  0  0
    4.4038   11.9634  -15.3932 C   0  0  0  0  0  0  0  0  0  0  0  0
    3.9844   11.0344  -14.4366 C   0  0  0  0  0  0  0  0  0  0  0  0
    3.7649    6.9311  -11.8146 N   0  0  0  0  0  0  0  0  0  0  0  0
    2.3105    6.9145  -11.9314 C   0  0  0  0  0  0  0  0  0  0  0  0
    4.5614    5.9321  -11.3988 C   0  0  0  0  0  0  0  0  0  0  0  0
    5.7481    6.0445  -11.6868 O   0  0  0  0  0  0  0  0  0  0  0  0
    4.0817    4.7252  -10.6633 C   0  0  2  0  0  0  0  0  0  0  0  0
    3.2479    4.9245   -9.3048 C   0  0  0  0  0  0  0  0  0  0  0  0
    2.3941    6.1658   -8.9083 C   0  0  0  0  0  0  0  0  0  0  0  0
    1.0276    6.2671   -9.1665 C   0  0  0  0  0  0  0  0  0  0  0  0
    0.2637    7.4080   -8.8174 C   0  0  0  0  0  0  0  0  0  0  0  0
    0.8569    8.5003   -8.1801 C   0  0  0  0  0  0  0  0  0  0  0  0
    2.1851    8.3923   -7.8335 C   0  0  0  0  0  0  0  0  0  0  0  0
    2.9028    7.2212   -8.1524 C   0  0  0  0  0  0  0  0  0  0  0  0
    5.2737    3.7200  -10.6350 N   0  0  0  0  0  0  0  0  0  0  0  0
    6.5812    3.7232  -11.1955 C   0  0  0  0  0  0  0  0  0  0  0  0
    6.8435    2.6566  -11.7915 O   0  0  0  0  0  0  0  0  0  0  0  0
    7.8770    4.8178  -10.9585 C   0  0  2  0  0  0  0  0  0  0  0  0
    8.6048    5.2544  -12.3128 C   0  0  0  0  0  0  0  0  0  0  0  0
    9.8352    6.1487  -12.0622 C   0  0  0  0  0  0  0  0  0  0  0  0
    7.7546    6.0298  -13.3300 C   0  0  0  0  0  0  0  0  0  0  0  0
    8.9496    4.2239  -10.0062 N   0  0  0  0  0  0  0  0  0  0  0  0
    9.4327    2.9215  -10.4097 C   0  0  0  0  0  0  0  0  0  0  0  0
    9.6465    5.0291   -9.0673 C   0  0  0  0  0  0  0  0  0  0  0  0
    9.7567    6.2563   -9.2204 O   0  0  0  0  0  0  0  0  0  0  0  0
   10.0151    4.4828   -7.6067 C   0  0  1  0  0  0  0  0  0  0  0  0
   10.7294    3.1445   -7.2842 C   0  0  1  0  0  0  0  0  0  0  0  0
    9.7568    1.9411   -7.2804 C   0  0  0  0  0  0  0  0  0  0  0  0
   12.0413    2.9317   -8.0567 C   0  0  0  0  0  0  0  0  0  0  0  0
   12.4288    1.4712   -8.2719 C   0  0  0  0  0  0  0  0  0  0  0  0
   10.6630    5.6484   -6.6581 O   0  0  0  0  0  0  0  0  0  0  0  0
   10.4829    6.3073   -5.4117 C   0  0  0  0  0  0  0  0  0  0  0  0
   11.4817    6.5692   -4.7347 O   0  0  0  0  0  0  0  0  0  0  0  0
    9.0473    6.9893   -4.9692 C   0  0  1  0  0  0  0  0  0  0  0  0
    7.9820    6.2508   -5.7072 C   0  0  0  0  0  0  0  0  0  0  0  0
    8.2479    4.8096   -5.2189 C   0  0  0  0  0  0  0  0  0  0  0  0
    6.6512    7.0792   -5.5703 C   0  0  0  0  0  0  0  0  0  0  0  0
    8.1920    6.2660   -7.0907 O   0  0  0  0  0  0  0  0  0  0  0  0
    8.4126    7.3287   -3.4981 N   0  0  0  0  0  0  0  0  0  0  0  0
    8.8054    8.6345   -2.9938 C   0  0  0  0  0  0  0  0  0  0  0  0
    7.2546    6.6485   -2.9453 C   0  0  0  0  0  0  0  0  0  0  0  0
    6.8158    5.5842   -3.3783 O   0  0  0  0  0  0  0  0  0  0  0  0
    6.4082    7.0254   -1.7221 C   0  0  2  0  0  0  0  0  0  0  0  0
    6.9823    6.1437   -0.5678 C   0  0  0  0  0  0  0  0  0  0  0  0
    8.5223    6.3068   -0.3653 C   0  0  0  0  0  0  0  0  0  0  0  0
    8.8772    7.6514    0.2682 C   0  0  0  0  0  0  0  0  0  0  0  0
    9.1406    5.1674    0.4435 C   0  0  0  0  0  0  0  0  0  0  0  0
    4.8024    6.8769   -1.8593 N   0  0  0  0  0  0  0  0  0  0  0  0
    3.7901    5.9568   -2.1688 C   0  0  0  0  0  0  0  0  0  0  0  0
    2.9371    5.8087   -1.2781 O   0  0  0  0  0  0  0  0  0  0  0  0
    3.4906    5.2922   -3.6032 C   0  0  2  0  0  0  0  0  0  0  0  0
    2.0990    5.6360   -4.3083 C   0  0  0  0  0  0  0  0  0  0  0  0
    1.4795    4.6046   -5.3441 C   0  0  0  0  0  0  0  0  0  0  0  0
    2.3442    6.8505   -5.1569 C   0  0  0  0  0  0  0  0  0  0  0  0
    3.5872    3.8407   -3.7435 N   0  0  0  0  0  0  0  0  0  0  0  0
    2.6723    3.0163   -2.9397 C   0  0  0  0  0  0  0  0  0  0  0  0
    4.0149    3.4321   -5.0437 C   0  0  0  0  0  0  0  0  0  0  0  0
    3.4715    2.5961   -5.7602 O   0  0  0  0  0  0  0  0  0  0  0  0
    5.0465   -0.5871   -2.8289 H   0  0  0  0  0  0  0  0  0  0  0  0
    6.5404    0.1540   -2.3494 H   0  0  0  0  0  0  0  0  0  0  0  0
    6.3828   -0.5677   -3.9784 H   0  0  0  0  0  0  0  0  0  0  0  0
    4.6785    1.6360   -2.9238 H   0  0  0  0  0  0  0  0  0  0  0  0
    4.6360    1.0306   -4.5861 H   0  0  0  0  0  0  0  0  0  0  0  0
    5.8377    3.2476   -3.2805 H   0  0  0  0  0  0  0  0  0  0  0  0
    8.2462    1.8525   -4.1530 H   0  0  0  0  0  0  0  0  0  0  0  0
    7.4631    1.9216   -2.5819 H   0  0  0  0  0  0  0  0  0  0  0  0
    8.0444    3.3402   -3.1559 H   0  0  0  0  0  0  0  0  0  0  0  0
    5.6183    4.7861   -4.7427 H   0  0  0  0  0  0  0  0  0  0  0  0
    6.0465    3.7103   -7.3715 H   0  0  0  0  0  0  0  0  0  0  0  0
    6.1279    6.8185   -9.6889 H   0  0  0  0  0  0  0  0  0  0  0  0
    7.6596    8.2857   -9.5874 H   0  0  0  0  0  0  0  0  0  0  0  0
    7.9729    8.0649   -7.9106 H   0  0  0  0  0  0  0  0  0  0  0  0
    7.3270   10.3922   -8.7266 H   0  0  0  0  0  0  0  0  0  0  0  0
    6.7110    9.8491   -7.1771 H   0  0  0  0  0  0  0  0  0  0  0  0
    5.2399   10.6172   -9.4337 H   0  0  0  0  0  0  0  0  0  0  0  0
    4.5719    9.9537   -7.9455 H   0  0  0  0  0  0  0  0  0  0  0  0
    5.5939    8.0790  -12.1096 H   0  0  0  0  0  0  0  0  0  0  0  0
    4.0466    7.8969  -14.0963 H   0  0  0  0  0  0  0  0  0  0  0  0
    2.9709    9.0233  -13.3315 H   0  0  0  0  0  0  0  0  0  0  0  0
    6.4213    8.6932  -14.8670 H   0  0  0  0  0  0  0  0  0  0  0  0
    7.1765   10.3714  -16.5152 H   0  0  0  0  0  0  0  0  0  0  0  0
    5.8677   12.4402  -16.8955 H   0  0  0  0  0  0  0  0  0  0  0  0
    3.8043   12.8497  -15.5831 H   0  0  0  0  0  0  0  0  0  0  0  0
    3.0443   11.2100  -13.9181 H   0  0  0  0  0  0  0  0  0  0  0  0
    1.9991    7.2229  -12.9321 H   0  0  0  0  0  0  0  0  0  0  0  0
    1.8878    7.6235  -11.2211 H   0  0  0  0  0  0  0  0  0  0  0  0
    1.9137    5.9087  -11.7819 H   0  0  0  0  0  0  0  0  0  0  0  0
    3.3760    4.2448  -11.3526 H   0  0  0  0  0  0  0  0  0  0  0  0
    3.8745    4.7091   -8.4470 H   0  0  0  0  0  0  0  0  0  0  0  0
    2.5433    4.0793   -9.2595 H   0  0  0  0  0  0  0  0  0  0  0  0
    0.5026    5.4547   -9.6727 H   0  0  0  0  0  0  0  0  0  0  0  0
   -0.7960    7.4661   -9.0574 H   0  0  0  0  0  0  0  0  0  0  0  0
    0.2884    9.3846   -7.8996 H   0  0  0  0  0  0  0  0  0  0  0  0
    2.6500    9.1759   -7.2481 H   0  0  0  0  0  0  0  0  0  0  0  0
    3.8889    7.1502   -7.7269 H   0  0  0  0  0  0  0  0  0  0  0  0
    4.9127    2.7950  -10.8228 H   0  0  0  0  0  0  0  0  0  0  0  0
    7.5506    5.7271  -10.4706 H   0  0  0  0  0  0  0  0  0  0  0  0
    8.9426    4.3551  -12.8314 H   0  0  0  0  0  0  0  0  0  0  0  0
    9.5593    7.0496  -11.5048 H   0  0  0  0  0  0  0  0  0  0  0  0
   10.2819    6.4886  -13.0058 H   0  0  0  0  0  0  0  0  0  0  0  0
   10.6233    5.6163  -11.5278 H   0  0  0  0  0  0  0  0  0  0  0  0
    7.4719    7.0133  -12.9446 H   0  0  0  0  0  0  0  0  0  0  0  0
    6.8676    5.4693  -13.6360 H   0  0  0  0  0  0  0  0  0  0  0  0
    8.3302    6.2211  -14.2456 H   0  0  0  0  0  0  0  0  0  0  0  0
    9.4191    2.8275  -11.4979 H   0  0  0  0  0  0  0  0  0  0  0  0
    8.7802    2.1516  -10.0021 H   0  0  0  0  0  0  0  0  0  0  0  0
   10.4646    2.7762  -10.1175 H   0  0  0  0  0  0  0  0  0  0  0  0
    9.0083    4.3103   -7.2593 H   0  0  0  0  0  0  0  0  0  0  0  0
   11.0352    3.2171   -6.2300 H   0  0  0  0  0  0  0  0  0  0  0  0
    9.5875    1.5144   -8.2652 H   0  0  0  0  0  0  0  0  0  0  0  0
    8.7793    2.2012   -6.8608 H   0  0  0  0  0  0  0  0  0  0  0  0
   10.1511    1.1305   -6.6571 H   0  0  0  0  0  0  0  0  0  0  0  0
   12.8483    3.4242   -7.5010 H   0  0  0  0  0  0  0  0  0  0  0  0
   12.0185    3.4385   -9.0251 H   0  0  0  0  0  0  0  0  0  0  0  0
   12.5047    0.9366   -7.3191 H   0  0  0  0  0  0  0  0  0  0  0  0
   13.3973    1.4068   -8.7742 H   0  0  0  0  0  0  0  0  0  0  0  0
   11.7031    0.9483   -8.9044 H   0  0  0  0  0  0  0  0  0  0  0  0
    9.1363    7.9808   -5.4388 H   0  0  0  0  0  0  0  0  0  0  0  0
    8.3642    4.7458   -4.1562 H   0  0  0  0  0  0  0  0  0  0  0  0
    9.2412    4.4126   -5.4052 H   0  0  0  0  0  0  0  0  0  0  0  0
    7.6529    4.0344   -5.6691 H   0  0  0  0  0  0  0  0  0  0  0  0
    6.6079    7.8351   -4.7850 H   0  0  0  0  0  0  0  0  0  0  0  0
    5.7416    6.5070   -5.4853 H   0  0  0  0  0  0  0  0  0  0  0  0
    6.4806    7.7124   -6.4249 H   0  0  0  0  0  0  0  0  0  0  0  0
    9.0515    6.6533   -7.3597 H   0  0  0  0  0  0  0  0  0  0  0  0
    9.0691    9.2964   -3.8232 H   0  0  0  0  0  0  0  0  0  0  0  0
    9.6790    8.5178   -2.3499 H   0  0  0  0  0  0  0  0  0  0  0  0
    7.9909    9.1180   -2.4546 H   0  0  0  0  0  0  0  0  0  0  0  0
    6.5231    8.0823   -1.4841 H   0  0  0  0  0  0  0  0  0  0  0  0
    6.4570    6.3673    0.3670 H   0  0  0  0  0  0  0  0  0  0  0  0
    6.7675    5.0902   -0.7947 H   0  0  0  0  0  0  0  0  0  0  0  0
    9.0358    6.2500   -1.3291 H   0  0  0  0  0  0  0  0  0  0  0  0
    8.5775    7.6887    1.3175 H   0  0  0  0  0  0  0  0  0  0  0  0
    8.3926    8.4847   -0.2455 H   0  0  0  0  0  0  0  0  0  0  0  0
    9.9590    7.8236    0.2149 H   0  0  0  0  0  0  0  0  0  0  0  0
    8.7625    5.1446    1.4687 H   0  0  0  0  0  0  0  0  0  0  0  0
   10.2308    5.2862    0.4838 H   0  0  0  0  0  0  0  0  0  0  0  0
    8.9405    4.2005   -0.0304 H   0  0  0  0  0  0  0  0  0  0  0  0
    4.4543    7.2458   -0.9808 H   0  0  0  0  0  0  0  0  0  0  0  0
    4.2394    5.7798   -4.2129 H   0  0  0  0  0  0  0  0  0  0  0  0
    1.3327    5.8282   -3.5567 H   0  0  0  0  0  0  0  0  0  0  0  0
    2.1075    4.4908   -6.2383 H   0  0  0  0  0  0  0  0  0  0  0  0
    0.5127    4.9527   -5.7222 H   0  0  0  0  0  0  0  0  0  0  0  0
    1.2800    3.6054   -4.9469 H   0  0  0  0  0  0  0  0  0  0  0  0
    3.1905    6.6275   -5.8070 H   0  0  0  0  0  0  0  0  0  0  0  0
    2.5904    7.7365   -4.5699 H   0  0  0  0  0  0  0  0  0  0  0  0
    1.4612    7.0484   -5.7668 H   0  0  0  0  0  0  0  0  0  0  0  0
    1.6665    3.4367   -2.9002 H   0  0  0  0  0  0  0  0  0  0  0  0
    3.0579    2.9728   -1.9170 H   0  0  0  0  0  0  0  0  0  0  0  0
    2.6008    2.0019   -3.3439 H   0  0  0  0  0  0  0  0  0  0  0  0
  1  2  1  0  0  0  0
  1 80  1  0  0  0  0
  1 81  1  0  0  0  0
  1 82  1  0  0  0  0
  2 83  1  0  0  0  0
  2 84  1  0  0  0  0
  3  4  1  0  0  0  0
  3  2  1  0  0  0  0
  3 85  1  6  0  0  0
  4 86  1  0  0  0  0
  4 87  1  0  0  0  0
  4 88  1  0  0  0  0
  5  6  1  0  0  0  0
  5 78  1  0  0  0  0
  5  3  1  0  0  0  0
  5 89  1  6  0  0  0
  6  7  1  0  0  0  0
  6 90  1  0  0  0  0
  7  8  2  0  0  0  0
  7  9  1  0  0  0  0
  9 10  1  0  0  0  0
  9 13  1  0  0  0  0
  9 91  1  6  0  0  0
 10 11  1  0  0  0  0
 10 92  1  0  0  0  0
 10 93  1  0  0  0  0
 11 12  1  0  0  0  0
 11 94  1  0  0  0  0
 11 95  1  0  0  0  0
 12 13  1  0  0  0  0
 12 96  1  0  0  0  0
 12 97  1  0  0  0  0
 13 14  1  0  0  0  0
 14 15  2  0  0  0  0
 14 16  1  0  0  0  0
 16 24  1  0  0  0  0
 16 17  1  0  0  0  0
 16 98  1  6  0  0  0
 17 18  1  0  0  0  0
 17 99  1  0  0  0  0
 17100  1  0  0  0  0
 18 19  1  0  0  0  0
 18 23  2  0  0  0  0
 19 20  2  0  0  0  0
 19101  1  0  0  0  0
 20 21  1  0  0  0  0
 20102  1  0  0  0  0
 21 22  2  0  0  0  0
 21103  1  0  0  0  0
 22 23  1  0  0  0  0
 22104  1  0  0  0  0
 23105  1  0  0  0  0
 24 25  1  0  0  0  0
 24 26  1  0  0  0  0
 25106  1  0  0  0  0
 25107  1  0  0  0  0
 25108  1  0  0  0  0
 26 27  2  0  0  0  0
 26 28  1  0  0  0  0
 28 36  1  0  0  0  0
 28 29  1  0  0  0  0
 28109  1  6  0  0  0
 29 30  1  0  0  0  0
 29110  1  0  0  0  0
 29111  1  0  0  0  0
 30 31  1  0  0  0  0
 30 35  2  0  0  0  0
 31 32  2  0  0  0  0
 31112  1  0  0  0  0
 32 33  1  0  0  0  0
 32113  1  0  0  0  0
 33 34  2  0  0  0  0
 33114  1  0  0  0  0
 34 35  1  0  0  0  0
 34115  1  0  0  0  0
 35116  1  0  0  0  0
 36 37  1  0  0  0  0
 36117  1  0  0  0  0
 37 38  2  0  0  0  0
 37 39  1  0  0  0  0
 39 43  1  0  0  0  0
 39 40  1  0  0  0  0
 39118  1  1  0  0  0
 40 41  1  0  0  0  0
 40 42  1  0  0  0  0
 40119  1  0  0  0  0
 41120  1  0  0  0  0
 41121  1  0  0  0  0
 41122  1  0  0  0  0
 42123  1  0  0  0  0
 42124  1  0  0  0  0
 42125  1  0  0  0  0
 43 44  1  0  0  0  0
 43 45  1  0  0  0  0
 44126  1  0  0  0  0
 44127  1  0  0  0  0
 44128  1  0  0  0  0
 45 46  2  0  0  0  0
 45 47  1  0  0  0  0
 47 48  1  0  0  0  0
 47 52  1  0  0  0  0
 47129  1  1  0  0  0
 48 49  1  0  0  0  0
 48 50  1  0  0  0  0
 48130  1  1  0  0  0
 49131  1  0  0  0  0
 49132  1  0  0  0  0
 49133  1  0  0  0  0
 50 51  1  0  0  0  0
 50134  1  0  0  0  0
 50135  1  0  0  0  0
 51136  1  0  0  0  0
 51137  1  0  0  0  0
 51138  1  0  0  0  0
 52 53  1  0  0  0  0
 53 54  2  0  0  0  0
 53 55  1  0  0  0  0
 55 56  1  0  0  0  0
 55 60  1  0  0  0  0
 55139  1  6  0  0  0
 56 57  1  0  0  0  0
 56 58  1  0  0  0  0
 56 59  1  0  0  0  0
 57140  1  0  0  0  0
 57141  1  0  0  0  0
 57142  1  0  0  0  0
 58143  1  0  0  0  0
 58144  1  0  0  0  0
 58145  1  0  0  0  0
 59146  1  0  0  0  0
 60 61  1  0  0  0  0
 60 62  1  0  0  0  0
 61147  1  0  0  0  0
 61148  1  0  0  0  0
 61149  1  0  0  0  0
 62 63  2  0  0  0  0
 62 64  1  0  0  0  0
 64 69  1  0  0  0  0
 64 65  1  0  0  0  0
 64150  1  1  0  0  0
 65 66  1  0  0  0  0
 65151  1  0  0  0  0
 65152  1  0  0  0  0
 66 67  1  0  0  0  0
 66 68  1  0  0  0  0
 66153  1  0  0  0  0
 67154  1  0  0  0  0
 67155  1  0  0  0  0
 67156  1  0  0  0  0
 68157  1  0  0  0  0
 68158  1  0  0  0  0
 68159  1  0  0  0  0
 69 70  1  0  0  0  0
 69160  1  0  0  0  0
 70 71  2  0  0  0  0
 70 72  1  0  0  0  0
 72 76  1  0  0  0  0
 72 73  1  0  0  0  0
 72161  1  6  0  0  0
 73 74  1  0  0  0  0
 73 75  1  0  0  0  0
 73162  1  0  0  0  0
 74163  1  0  0  0  0
 74164  1  0  0  0  0
 74165  1  0  0  0  0
 75166  1  0  0  0  0
 75167  1  0  0  0  0
 75168  1  0  0  0  0
 76 77  1  0  0  0  0
 76 78  1  0  0  0  0
 77169  1  0  0  0  0
 77170  1  0  0  0  0
 77171  1  0  0  0  0
 78 79  2  0  0  0  0
M  END
>  <Energy>
1021.28

$$$$