15511440
  -OEChem-03242010103D

 78 83  0     1  0  0  0  0  0999 V2000
    9.5082    1.3756   -1.7746 O   0  0  0  0  0  0  0  0  0  0  0  0
   10.5461   -0.6716   -0.2108 O   0  0  0  0  0  0  0  0  0  0  0  0
   -3.4714    2.5106   -1.7710 O   0  0  0  0  0  0  0  0  0  0  0  0
   -7.7554   -0.7417    0.0359 O   0  0  0  0  0  0  0  0  0  0  0  0
    4.3028   -0.0343    1.1163 N   0  0  1  0  0  0  0  0  0  0  0  0
   -3.0798    2.5047    0.5473 N   0  0  0  0  0  0  0  0  0  0  0  0
   -5.7666    0.4678   -0.2912 N   0  0  0  0  0  0  0  0  0  0  0  0
   -5.8056   -4.2966   -0.7551 N   0  0  0  0  0  0  0  0  0  0  0  0
    4.6160   -1.4586    1.2853 C   0  0  0  0  0  0  0  0  0  0  0  0
    4.9964    0.5025   -0.0679 C   0  0  0  0  0  0  0  0  0  0  0  0
    6.1022   -1.6293    1.6160 C   0  0  0  0  0  0  0  0  0  0  0  0
    6.4781    0.2041   -0.0794 C   0  0  0  0  0  0  0  0  0  0  0  0
    7.0006   -0.8467    0.6940 C   0  0  0  0  0  0  0  0  0  0  0  0
    2.8595    0.1693    0.9968 C   0  0  0  0  0  0  0  0  0  0  0  0
    2.5204    1.6588    0.9266 C   0  0  0  0  0  0  0  0  0  0  0  0
    7.3318    0.9369   -0.9151 C   0  0  0  0  0  0  0  0  0  0  0  0
    8.3729   -1.1248    0.6488 C   0  0  0  0  0  0  0  0  0  0  0  0
    8.6951    0.6462   -0.9605 C   0  0  0  0  0  0  0  0  0  0  0  0
    9.2154   -0.3819   -0.1777 C   0  0  0  0  0  0  0  0  0  0  0  0
    1.0328    1.8835    0.8257 C   0  0  0  0  0  0  0  0  0  0  0  0
    0.4364    1.9454   -0.4247 C   0  0  0  0  0  0  0  0  0  0  0  0
    0.2853    2.0245    1.9853 C   0  0  0  0  0  0  0  0  0  0  0  0
   -0.9397    2.1533   -0.5177 C   0  0  0  0  0  0  0  0  0  0  0  0
   -1.0909    2.2324    1.8922 C   0  0  0  0  0  0  0  0  0  0  0  0
   -1.7034    2.2968    0.6407 C   0  0  0  0  0  0  0  0  0  0  0  0
   10.1017    2.5466   -1.2172 C   0  0  0  0  0  0  0  0  0  0  0  0
   10.9766   -1.6325   -1.1729 C   0  0  0  0  0  0  0  0  0  0  0  0
   -3.8617    2.5970   -0.6117 C   0  0  0  0  0  0  0  0  0  0  0  0
   -5.3085    2.8524   -0.3857 C   0  0  0  0  0  0  0  0  0  0  0  0
   -6.1881    1.7995   -0.2362 C   0  0  0  0  0  0  0  0  0  0  0  0
   -5.7240    4.1685   -0.3314 C   0  0  0  0  0  0  0  0  0  0  0  0
   -7.5394    2.0727   -0.0239 C   0  0  0  0  0  0  0  0  0  0  0  0
   -7.0754    4.4418   -0.1192 C   0  0  0  0  0  0  0  0  0  0  0  0
   -5.7985   -1.9698   -0.2346 C   0  0  0  0  0  0  0  0  0  0  0  0
   -6.5456   -0.6871   -0.1569 C   0  0  0  0  0  0  0  0  0  0  0  0
   -7.9831    3.3940    0.0346 C   0  0  0  0  0  0  0  0  0  0  0  0
   -3.7946   -3.2369    0.0447 C   0  0  0  0  0  0  0  0  0  0  0  0
   -4.4776   -2.0160    0.1256 C   0  0  0  0  0  0  0  0  0  0  0  0
   -4.5069   -4.3676   -0.4069 C   0  0  0  0  0  0  0  0  0  0  0  0
   -6.4282   -3.0993   -0.6631 C   0  0  0  0  0  0  0  0  0  0  0  0
   -2.4394   -3.3472    0.3998 C   0  0  0  0  0  0  0  0  0  0  0  0
   -3.8280   -5.5803   -0.4866 C   0  0  0  0  0  0  0  0  0  0  0  0
   -1.7853   -4.5724    0.3100 C   0  0  0  0  0  0  0  0  0  0  0  0
   -2.4810   -5.6903   -0.1335 C   0  0  0  0  0  0  0  0  0  0  0  0
    4.3613   -2.0241    0.3786 H   0  0  0  0  0  0  0  0  0  0  0  0
    4.0339   -1.8886    2.1097 H   0  0  0  0  0  0  0  0  0  0  0  0
    4.9168    1.5940   -0.0799 H   0  0  0  0  0  0  0  0  0  0  0  0
    4.5618    0.1075   -0.9956 H   0  0  0  0  0  0  0  0  0  0  0  0
    6.3548   -2.6951    1.5649 H   0  0  0  0  0  0  0  0  0  0  0  0
    6.2894   -1.2896    2.6427 H   0  0  0  0  0  0  0  0  0  0  0  0
    2.3591   -0.2601    1.8749 H   0  0  0  0  0  0  0  0  0  0  0  0
    2.4582   -0.3557    0.1192 H   0  0  0  0  0  0  0  0  0  0  0  0
    2.9731    2.1505    0.0588 H   0  0  0  0  0  0  0  0  0  0  0  0
    2.9124    2.1826    1.8086 H   0  0  0  0  0  0  0  0  0  0  0  0
    6.9309    1.7366   -1.5339 H   0  0  0  0  0  0  0  0  0  0  0  0
    8.7849   -1.9231    1.2618 H   0  0  0  0  0  0  0  0  0  0  0  0
    1.0229    1.8318   -1.3322 H   0  0  0  0  0  0  0  0  0  0  0  0
    0.7531    1.9738    2.9644 H   0  0  0  0  0  0  0  0  0  0  0  0
   -1.3391    2.1897   -1.5213 H   0  0  0  0  0  0  0  0  0  0  0  0
   -1.6738    2.3418    2.8032 H   0  0  0  0  0  0  0  0  0  0  0  0
   10.7250    3.0133   -1.9848 H   0  0  0  0  0  0  0  0  0  0  0  0
    9.3294    3.2596   -0.9119 H   0  0  0  0  0  0  0  0  0  0  0  0
   10.7344    2.2884   -0.3621 H   0  0  0  0  0  0  0  0  0  0  0  0
   10.5026   -2.6013   -0.9856 H   0  0  0  0  0  0  0  0  0  0  0  0
   10.7474   -1.2915   -2.1875 H   0  0  0  0  0  0  0  0  0  0  0  0
   12.0597   -1.7492   -1.0795 H   0  0  0  0  0  0  0  0  0  0  0  0
   -3.5674    2.6033    1.4356 H   0  0  0  0  0  0  0  0  0  0  0  0
   -5.0230    4.9895   -0.4502 H   0  0  0  0  0  0  0  0  0  0  0  0
   -4.7787    0.3497   -0.4921 H   0  0  0  0  0  0  0  0  0  0  0  0
   -8.3085    1.3256    0.1052 H   0  0  0  0  0  0  0  0  0  0  0  0
   -7.4207    5.4705   -0.0736 H   0  0  0  0  0  0  0  0  0  0  0  0
   -9.0350    3.6084    0.1999 H   0  0  0  0  0  0  0  0  0  0  0  0
   -3.9452   -1.1503    0.5090 H   0  0  0  0  0  0  0  0  0  0  0  0
   -7.4703   -3.1129   -0.9640 H   0  0  0  0  0  0  0  0  0  0  0  0
   -1.8851   -2.4783    0.7480 H   0  0  0  0  0  0  0  0  0  0  0  0
   -4.3503   -6.4709   -0.8313 H   0  0  0  0  0  0  0  0  0  0  0  0
   -0.7382   -4.6537    0.5850 H   0  0  0  0  0  0  0  0  0  0  0  0
   -1.9784   -6.6504   -0.2066 H   0  0  0  0  0  0  0  0  0  0  0  0
  1 18  1  0  0  0  0
  1 26  1  0  0  0  0
  2 19  1  0  0  0  0
  2 27  1  0  0  0  0
  3 28  2  0  0  0  0
  4 35  2  0  0  0  0
  5  9  1  0  0  0  0
  5 10  1  0  0  0  0
  5 14  1  0  0  0  0
  6 25  1  0  0  0  0
  6 28  1  0  0  0  0
  6 67  1  0  0  0  0
  7 30  1  0  0  0  0
  7 35  1  0  0  0  0
  7 69  1  0  0  0  0
  8 39  1  0  0  0  0
  8 40  2  0  0  0  0
  9 11  1  0  0  0  0
  9 45  1  0  0  0  0
  9 46  1  0  0  0  0
 10 12  1  0  0  0  0
 10 47  1  0  0  0  0
 10 48  1  0  0  0  0
 11 13  1  0  0  0  0
 11 49  1  0  0  0  0
 11 50  1  0  0  0  0
 12 13  1  0  0  0  0
 12 16  2  0  0  0  0
 13 17  2  0  0  0  0
 14 15  1  0  0  0  0
 14 51  1  0  0  0  0
 14 52  1  0  0  0  0
 15 20  1  0  0  0  0
 15 53  1  0  0  0  0
 15 54  1  0  0  0  0
 16 18  1  0  0  0  0
 16 55  1  0  0  0  0
 17 19  1  0  0  0  0
 17 56  1  0  0  0  0
 18 19  2  0  0  0  0
 20 21  2  0  0  0  0
 20 22  1  0  0  0  0
 21 23  1  0  0  0  0
 21 57  1  0  0  0  0
 22 24  2  0  0  0  0
 22 58  1  0  0  0  0
 23 25  2  0  0  0  0
 23 59  1  0  0  0  0
 24 25  1  0  0  0  0
 24 60  1  0  0  0  0
 26 61  1  0  0  0  0
 26 62  1  0  0  0  0
 26 63  1  0  0  0  0
 27 64  1  0  0  0  0
 27 65  1  0  0  0  0
 27 66  1  0  0  0  0
 28 29  1  0  0  0  0
 29 30  1  0  0  0  0
 29 31  2  0  0  0  0
 30 32  2  0  0  0  0
 31 33  1  0  0  0  0
 31 68  1  0  0  0  0
 32 36  1  0  0  0  0
 32 70  1  0  0  0  0
 33 36  2  0  0  0  0
 33 71  1  0  0  0  0
 34 35  1  0  0  0  0
 34 38  2  0  0  0  0
 34 40  1  0  0  0  0
 36 72  1  0  0  0  0
 37 38  1  0  0  0  0
 37 39  1  0  0  0  0
 37 41  2  0  0  0  0
 38 73  1  0  0  0  0
 39 42  2  0  0  0  0
 40 74  1  0  0  0  0
 41 43  1  0  0  0  0
 41 75  1  0  0  0  0
 42 44  1  0  0  0  0
 42 76  1  0  0  0  0
 43 44  2  0  0  0  0
 43 77  1  0  0  0  0
 44 78  1  0  0  0  0
M  END
> <PUBCHEM_COMPOUND_CID>
15511440

> <PUBCHEM_CONFORMER_RMSD>
1.2

> <PUBCHEM_CONFORMER_DIVERSEORDER>
1
93
111
123
148
147
181
223
188
137
25
227
153
116
59
16
112
121
203
37
92
125
157
24
130
164
149
46
141
198
72
97
52
171
197
114
118
19
232
163
98
87
139
176
61
103
58
47
10
43
38
218
231
67
200
186
6
233
14
60
75
228
83
79
39
128
122
221
8
32
165
35
80
71
162
28
142
167
12
51
194
196
91
94
21
81
90
115
185
132
131
127
53
140
160
73
29
225
110
138
237
50
109
42
54
174
213
195
215
76
159
226
133
96
104
102
20
202
84
63
180
57
95
219
169
204
209
150
154
64
36
120
182
146
99
11
158
205
201
65
156
134
211
82
199
136
172
108
155
107
89
184
22
190
7
27
44
117
33
145
26
113
48
207
77
135
74
49
192
216
166
70
34
175
18
68
193
40
178
129
62
15
152
183
88
238
189
208
85
69
214
66
105
234
56
17
151
170
212
126
86
55
31
187
217
229
45
191
143
106
177
4
210
161
168
222
9
206
124
23
2
173
220
78
179
230
235
41
101
30
100
3
144
236
224
5
13
119

> <PUBCHEM_MMFF94_PARTIAL_CHARGES>
61
1 -0.36
10 0.41
11 0.14
12 -0.14
13 -0.14
14 0.27
15 0.14
16 -0.15
17 -0.15
18 0.08
19 0.08
2 -0.36
20 -0.14
21 -0.15
22 -0.15
23 -0.15
24 -0.15
25 0.12
26 0.28
27 0.28
28 0.54
29 0.09
3 -0.57
30 0.12
31 -0.15
32 -0.15
33 -0.15
34 0.09
35 0.54
36 -0.15
38 -0.15
39 0.31
4 -0.57
40 0.16
41 -0.15
42 -0.15
43 -0.15
44 -0.15
5 -0.81
55 0.15
56 0.15
57 0.15
58 0.15
59 0.15
6 -0.55
60 0.15
67 0.37
68 0.15
69 0.37
7 -0.55
70 0.15
71 0.15
72 0.15
73 0.15
74 0.15
75 0.15
76 0.15
77 0.15
78 0.15
8 -0.62
9 0.27

> <PUBCHEM_EFFECTIVE_ROTOR_COUNT>
11.8

> <PUBCHEM_PHARMACOPHORE_FEATURES>
14
1 1 acceptor
1 2 acceptor
1 3 acceptor
1 4 acceptor
1 5 cation
1 6 donor
1 7 donor
1 8 acceptor
6 12 13 16 17 18 19 rings
6 20 21 22 23 24 25 rings
6 29 30 31 32 33 36 rings
6 37 39 41 42 43 44 rings
6 5 9 10 11 12 13 rings
6 8 34 37 38 39 40 rings

> <PUBCHEM_HEAVY_ATOM_COUNT>
44

> <PUBCHEM_ATOM_DEF_STEREO_COUNT>
0

> <PUBCHEM_ATOM_UDEF_STEREO_COUNT>
0

> <PUBCHEM_BOND_DEF_STEREO_COUNT>
0

> <PUBCHEM_BOND_UDEF_STEREO_COUNT>
0

> <PUBCHEM_ISOTOPIC_ATOM_COUNT>
0

> <PUBCHEM_COMPONENT_COUNT>
1

> <PUBCHEM_CACTVS_TAUTO_COUNT>
7

> <PUBCHEM_CONFORMER_ID>
00ECAF9000000001

> <PUBCHEM_MMFF94_ENERGY>
165.9926

> <PUBCHEM_FEATURE_SELFOVERLAP>
71.109

> <PUBCHEM_SHAPE_FINGERPRINT>
10050765 1 18339356495481583984
11103572 155 18337104566887185054
11763389 116 18131352998999993278
12144603 126 18187085023071478688
131240 100 18201717384919657088
13165053 182 16952550228168283318
14340393 91 18339642355719552952
15230672 131 18410848837779234689
15439362 3 17833823882305465081
15444296 121 18408602595637503543
15890870 6 18410570661933564359
19304144 158 11241961577630175273
19611394 137 18131069367970396128
21133410 127 17827914019848167365
21133665 82 18411699851142121935
21867018 265 18410295830733352924
23516275 137 17975146348973105291
23576562 1 18334299803578704308
4017518 198 18338790123509236093
45377200 153 18413392021508172834
4625314 4 18411703180227157356
5265222 85 18336264544831261977
57676310 188 18263360305217066499
58902169 19 17822017518843839396

> <PUBCHEM_SHAPE_MULTIPOLES>
862.1
35.39
7.44
1.29
88.62
8.93
-0.23
-6.48
12.08
-21.5
1.02
2.01
-0.52
-1.9

> <PUBCHEM_SHAPE_SELFOVERLAP>
1898.44

> <PUBCHEM_SHAPE_VOLUME>
463

> <PUBCHEM_COORDINATE_TYPE>
2
5
10

$$$$