118708512
  -OEChem-03242010103D

 47 49  0     0  0  0  0  0  0999 V2000
    7.4725    0.3304    2.2809 F   0  0  0  0  0  0  0  0  0  0  0  0
    7.5012   -0.4805   -2.3851 F   0  0  0  0  0  0  0  0  0  0  0  0
   -3.5084    2.5931   -0.0463 O   0  0  0  0  0  0  0  0  0  0  0  0
   -5.5497   -2.5208    0.2601 O   0  0  0  0  0  0  0  0  0  0  0  0
   -7.1964   -0.3896   -0.4279 O   0  0  0  0  0  0  0  0  0  0  0  0
   -1.4411    1.2352    1.5801 O   0  0  0  0  0  0  0  0  0  0  0  0
   -0.8479   -0.2217   -0.1661 N   0  0  0  0  0  0  0  0  0  0  0  0
    1.2258   -0.9433   -1.0456 N   0  0  0  0  0  0  0  0  0  0  0  0
   -3.1747    0.2553    0.3773 C   0  0  0  0  0  0  0  0  0  0  0  0
   -4.0009    1.3248    0.0319 C   0  0  0  0  0  0  0  0  0  0  0  0
   -3.6988   -1.0351    0.4530 C   0  0  0  0  0  0  0  0  0  0  0  0
    3.2785   -0.1180   -0.0708 C   0  0  0  0  0  0  0  0  0  0  0  0
   -5.0493   -1.2560    0.1829 C   0  0  0  0  0  0  0  0  0  0  0  0
   -5.8757   -0.1867   -0.1625 C   0  0  0  0  0  0  0  0  0  0  0  0
   -1.7326    0.4696    0.6674 C   0  0  0  0  0  0  0  0  0  0  0  0
   -5.3515    1.1036   -0.2380 C   0  0  0  0  0  0  0  0  0  0  0  0
    4.7252   -0.1045   -0.0638 C   0  0  0  0  0  0  0  0  0  0  0  0
    0.5517   -0.1940   -0.1445 C   0  0  0  0  0  0  0  0  0  0  0  0
    2.5501    0.6393    0.8400 C   0  0  0  0  0  0  0  0  0  0  0  0
    1.1603    0.6060    0.8091 C   0  0  0  0  0  0  0  0  0  0  0  0
    2.5752   -0.8856   -0.9850 C   0  0  0  0  0  0  0  0  0  0  0  0
    5.4298   -0.3036   -1.2510 C   0  0  0  0  0  0  0  0  0  0  0  0
    5.4152    0.1093    1.1294 C   0  0  0  0  0  0  0  0  0  0  0  0
    6.8099    0.1241    1.1353 C   0  0  0  0  0  0  0  0  0  0  0  0
    6.8246   -0.2888   -1.2450 C   0  0  0  0  0  0  0  0  0  0  0  0
    7.5146   -0.0749   -0.0518 C   0  0  0  0  0  0  0  0  0  0  0  0
   -2.9983    3.0126   -1.3103 C   0  0  0  0  0  0  0  0  0  0  0  0
   -4.6381   -3.5572    0.6197 C   0  0  0  0  0  0  0  0  0  0  0  0
   -7.9712    0.7570   -0.7734 C   0  0  0  0  0  0  0  0  0  0  0  0
   -3.0122   -1.8271    0.7331 H   0  0  0  0  0  0  0  0  0  0  0  0
   -5.9403    1.9768   -0.4991 H   0  0  0  0  0  0  0  0  0  0  0  0
   -1.2437   -0.8168   -0.8899 H   0  0  0  0  0  0  0  0  0  0  0  0
    3.0255    1.2882    1.5704 H   0  0  0  0  0  0  0  0  0  0  0  0
    0.6671    1.2239    1.5410 H   0  0  0  0  0  0  0  0  0  0  0  0
    3.0599   -1.5281   -1.7133 H   0  0  0  0  0  0  0  0  0  0  0  0
    4.9340   -0.4479   -2.2069 H   0  0  0  0  0  0  0  0  0  0  0  0
    4.9083    0.2431    2.0811 H   0  0  0  0  0  0  0  0  0  0  0  0
    8.6004   -0.0633   -0.0472 H   0  0  0  0  0  0  0  0  0  0  0  0
   -2.1731    2.3687   -1.6302 H   0  0  0  0  0  0  0  0  0  0  0  0
   -3.7921    3.0069   -2.0639 H   0  0  0  0  0  0  0  0  0  0  0  0
   -2.6231    4.0343   -1.2058 H   0  0  0  0  0  0  0  0  0  0  0  0
   -5.2047   -4.4943    0.6307 H   0  0  0  0  0  0  0  0  0  0  0  0
   -4.2426   -3.4143    1.6311 H   0  0  0  0  0  0  0  0  0  0  0  0
   -3.8452   -3.6751   -0.1268 H   0  0  0  0  0  0  0  0  0  0  0  0
   -8.9950    0.4118   -0.9518 H   0  0  0  0  0  0  0  0  0  0  0  0
   -7.6233    1.2134   -1.7064 H   0  0  0  0  0  0  0  0  0  0  0  0
   -8.0181    1.4762    0.0514 H   0  0  0  0  0  0  0  0  0  0  0  0
  1 24  1  0  0  0  0
  2 25  1  0  0  0  0
  3 10  1  0  0  0  0
  3 27  1  0  0  0  0
  4 13  1  0  0  0  0
  4 28  1  0  0  0  0
  5 14  1  0  0  0  0
  5 29  1  0  0  0  0
  6 15  2  0  0  0  0
  7 15  1  0  0  0  0
  7 18  1  0  0  0  0
  7 32  1  0  0  0  0
  8 18  2  0  0  0  0
  8 21  1  0  0  0  0
  9 10  1  0  0  0  0
  9 11  2  0  0  0  0
  9 15  1  0  0  0  0
 10 16  2  0  0  0  0
 11 13  1  0  0  0  0
 11 30  1  0  0  0  0
 12 17  1  0  0  0  0
 12 19  1  0  0  0  0
 12 21  2  0  0  0  0
 13 14  2  0  0  0  0
 14 16  1  0  0  0  0
 16 31  1  0  0  0  0
 17 22  2  0  0  0  0
 17 23  1  0  0  0  0
 18 20  1  0  0  0  0
 19 20  2  0  0  0  0
 19 33  1  0  0  0  0
 20 34  1  0  0  0  0
 21 35  1  0  0  0  0
 22 25  1  0  0  0  0
 22 36  1  0  0  0  0
 23 24  2  0  0  0  0
 23 37  1  0  0  0  0
 24 26  1  0  0  0  0
 25 26  2  0  0  0  0
 26 38  1  0  0  0  0
 27 39  1  0  0  0  0
 27 40  1  0  0  0  0
 27 41  1  0  0  0  0
 28 42  1  0  0  0  0
 28 43  1  0  0  0  0
 28 44  1  0  0  0  0
 29 45  1  0  0  0  0
 29 46  1  0  0  0  0
 29 47  1  0  0  0  0
M  END
> <PUBCHEM_COMPOUND_CID>
118708512

> <PUBCHEM_CONFORMER_RMSD>
0.8

> <PUBCHEM_CONFORMER_DIVERSEORDER>
1
13
9
12
8
11
4
7
2
5
3
10
6

> <PUBCHEM_MMFF94_PARTIAL_CHARGES>
36
1 -0.19
10 0.08
11 -0.15
13 0.08
14 0.08
15 0.54
16 -0.15
18 0.43
19 -0.15
2 -0.19
20 -0.15
21 0.16
22 -0.15
23 -0.15
24 0.19
25 0.19
26 -0.15
27 0.28
28 0.28
29 0.28
3 -0.36
30 0.15
31 0.15
32 0.37
33 0.15
34 0.15
35 0.15
36 0.15
37 0.15
38 0.15
4 -0.36
5 -0.36
6 -0.57
7 -0.55
8 -0.62
9 0.09

> <PUBCHEM_EFFECTIVE_ROTOR_COUNT>
7

> <PUBCHEM_PHARMACOPHORE_FEATURES>
8
1 3 acceptor
1 4 acceptor
1 5 acceptor
1 6 acceptor
1 7 donor
6 17 22 23 24 25 26 rings
6 8 12 18 19 20 21 rings
6 9 10 11 13 14 16 rings

> <PUBCHEM_HEAVY_ATOM_COUNT>
29

> <PUBCHEM_ATOM_DEF_STEREO_COUNT>
0

> <PUBCHEM_ATOM_UDEF_STEREO_COUNT>
0

> <PUBCHEM_BOND_DEF_STEREO_COUNT>
0

> <PUBCHEM_BOND_UDEF_STEREO_COUNT>
0

> <PUBCHEM_ISOTOPIC_ATOM_COUNT>
0

> <PUBCHEM_COMPONENT_COUNT>
1

> <PUBCHEM_CACTVS_TAUTO_COUNT>
7

> <PUBCHEM_CONFORMER_ID>
0713592000000001

> <PUBCHEM_MMFF94_ENERGY>
121.8073

> <PUBCHEM_FEATURE_SELFOVERLAP>
40.603

> <PUBCHEM_SHAPE_FINGERPRINT>
10 15 18131060568125140984
10076449 9 18410576194009651841
10299344 5 17385441029197560410
10554248 39 16081091468269056378
11315181 36 17894635863938175577
11524674 6 17275103946877166551
11719270 70 18272931605471618006
11991303 11 17846216713203882214
12107698 1 17967249801784995212
12166972 35 18411423925427032140
12236239 1 16732703852402987778
13533116 47 16370721518664933792
13782708 43 18200877378318492578
13914758 101 16660358143490501877
14068700 675 18113900502545213173
14117953 113 18409726266910104565
14118638 360 18336828576430126491
14170010 4 17203606004500116024
14461889 52 18272929436655434946
14856354 85 18260553346373162615
150020 25 18060700572031259908
15183329 4 18186805764176319984
15419008 47 18201995525688586408
15419008 91 18271790342208463896
15510794 2 18060419110672713030
15716309 27 15123790673553488468
1577012 14 17168147857910059946
17686467 74 18041562571823676900
18927931 339 18408606989716296099
19489759 90 18259985959433382513
21267235 1 17274826847970631977
21521721 280 16200431395106069258
21623969 137 17132121238365564998
21792961 116 18060143094303880702
2303208 19 17917720097683686254
23081809 10 17313106341698176232
23522609 53 17386588864162124716
23559900 14 18412257372546765329
249057 25 17603875489914028524
249057 3 18333449863904529365
3633792 109 15574704756097329393
397830 11 17986947643254586978
4073 2 18272658926065254899
4280585 95 18333726953682804901
49967989 163 17823718523330208138
504579 68 17458352935723589926
5104073 3 17774451468736178610
58902169 19 17313106379989281758
59755656 215 18273216378386859654
9862886 166 18411139160214781003

> <PUBCHEM_SHAPE_MULTIPOLES>
548.82
24.03
2.15
1.39
16.09
0.59
0.05
2.51
2.8
-5.96
0.13
3.06
-0.15
1.32

> <PUBCHEM_SHAPE_SELFOVERLAP>
1196.036

> <PUBCHEM_SHAPE_VOLUME>
300.6

> <PUBCHEM_COORDINATE_TYPE>
2
5
10

$$$$