25156686
  -OEChem-03242010103D

 72 75  0     1  0  0  0  0  0999 V2000
   -3.8665    1.6066   -0.5014 O   0  0  0  0  0  0  0  0  0  0  0  0
    4.5457   -0.7986   -2.8224 O   0  0  0  0  0  0  0  0  0  0  0  0
    6.4183   -0.4975   -0.7926 O   0  0  0  0  0  0  0  0  0  0  0  0
    1.5766   -1.3314    2.0631 O   0  0  0  0  0  0  0  0  0  0  0  0
    1.0500    2.5861    0.8886 N   0  0  2  0  0  0  0  0  0  0  0  0
    2.1617    3.3425    1.4779 C   0  0  0  0  0  0  0  0  0  0  0  0
    1.4031    2.1376   -0.4701 C   0  0  0  0  0  0  0  0  0  0  0  0
    3.3645    2.4180    1.6926 C   0  0  0  0  0  0  0  0  0  0  0  0
   -0.1687    3.3941    0.8574 C   0  0  0  0  0  0  0  0  0  0  0  0
    2.7286    1.4141   -0.5356 C   0  0  0  0  0  0  0  0  0  0  0  0
    3.6857    1.5847    0.4792 C   0  0  0  0  0  0  0  0  0  0  0  0
   -1.3994    2.4947    0.7560 C   0  0  0  0  0  0  0  0  0  0  0  0
   -2.6844    3.3200    0.7129 C   0  0  0  0  0  0  0  0  0  0  0  0
    3.0354    0.6175   -1.6471 C   0  0  0  0  0  0  0  0  0  0  0  0
    4.9195    0.9278    0.3861 C   0  0  0  0  0  0  0  0  0  0  0  0
    4.2704   -0.0247   -1.7356 C   0  0  0  0  0  0  0  0  0  0  0  0
    5.2104    0.1285   -0.7190 C   0  0  0  0  0  0  0  0  0  0  0  0
   -3.9206    2.4325    0.6541 C   0  0  0  0  0  0  0  0  0  0  0  0
   -4.9251    0.7604   -0.7065 C   0  0  0  0  0  0  0  0  0  0  0  0
   -4.7337   -0.6199   -0.7654 C   0  0  0  0  0  0  0  0  0  0  0  0
   -3.3712   -1.2088   -0.6047 C   0  0  0  0  0  0  0  0  0  0  0  0
   -3.1248   -1.8508    0.7742 C   0  0  0  0  0  0  0  0  0  0  0  0
    3.5295   -0.9030   -3.8178 C   0  0  0  0  0  0  0  0  0  0  0  0
    6.5067   -1.8035   -0.2262 C   0  0  0  0  0  0  0  0  0  0  0  0
   -6.2049    1.2942   -0.8579 C   0  0  0  0  0  0  0  0  0  0  0  0
   -5.8221   -1.4666   -0.9758 C   0  0  0  0  0  0  0  0  0  0  0  0
   -1.7310   -2.4085    0.9301 C   0  0  0  0  0  0  0  0  0  0  0  0
   -7.2933    0.4476   -1.0683 C   0  0  0  0  0  0  0  0  0  0  0  0
   -7.1019   -0.9329   -1.1273 C   0  0  0  0  0  0  0  0  0  0  0  0
   -0.7087   -1.6020    1.4302 C   0  0  0  0  0  0  0  0  0  0  0  0
   -1.4654   -3.7308    0.5743 C   0  0  0  0  0  0  0  0  0  0  0  0
    0.5792   -2.1179    1.5745 C   0  0  0  0  0  0  0  0  0  0  0  0
   -0.1776   -4.2467    0.7185 C   0  0  0  0  0  0  0  0  0  0  0  0
    0.8447   -3.4402    1.2186 C   0  0  0  0  0  0  0  0  0  0  0  0
    2.8694   -1.9231    2.1852 C   0  0  0  0  0  0  0  0  0  0  0  0
    1.8795    3.7550    2.4544 H   0  0  0  0  0  0  0  0  0  0  0  0
    2.4406    4.1889    0.8357 H   0  0  0  0  0  0  0  0  0  0  0  0
    1.4548    2.9879   -1.1634 H   0  0  0  0  0  0  0  0  0  0  0  0
    0.6355    1.4468   -0.8359 H   0  0  0  0  0  0  0  0  0  0  0  0
    3.1571    1.7364    2.5276 H   0  0  0  0  0  0  0  0  0  0  0  0
    4.2339    3.0276    1.9660 H   0  0  0  0  0  0  0  0  0  0  0  0
   -0.2640    3.9624    1.7922 H   0  0  0  0  0  0  0  0  0  0  0  0
   -0.1483    4.1330    0.0460 H   0  0  0  0  0  0  0  0  0  0  0  0
   -1.4319    1.8184    1.6191 H   0  0  0  0  0  0  0  0  0  0  0  0
   -1.3497    1.8699   -0.1416 H   0  0  0  0  0  0  0  0  0  0  0  0
   -2.6611    3.9642   -0.1747 H   0  0  0  0  0  0  0  0  0  0  0  0
   -2.7464    3.9694    1.5936 H   0  0  0  0  0  0  0  0  0  0  0  0
    2.2674    0.5406   -2.4098 H   0  0  0  0  0  0  0  0  0  0  0  0
    5.6551    1.0406    1.1792 H   0  0  0  0  0  0  0  0  0  0  0  0
   -3.9745    1.8031    1.5510 H   0  0  0  0  0  0  0  0  0  0  0  0
   -4.8051    3.0786    0.6310 H   0  0  0  0  0  0  0  0  0  0  0  0
   -3.2230   -1.9649   -1.3886 H   0  0  0  0  0  0  0  0  0  0  0  0
   -2.5952   -0.4585   -0.8023 H   0  0  0  0  0  0  0  0  0  0  0  0
   -3.8554   -2.6501    0.9561 H   0  0  0  0  0  0  0  0  0  0  0  0
   -3.3065   -1.1097    1.5645 H   0  0  0  0  0  0  0  0  0  0  0  0
   -6.3730    2.3671   -0.8346 H   0  0  0  0  0  0  0  0  0  0  0  0
    3.9173   -1.5568   -4.6060 H   0  0  0  0  0  0  0  0  0  0  0  0
    3.3197    0.0657   -4.2841 H   0  0  0  0  0  0  0  0  0  0  0  0
    2.6264   -1.3823   -3.4244 H   0  0  0  0  0  0  0  0  0  0  0  0
    7.5259   -2.1720   -0.3713 H   0  0  0  0  0  0  0  0  0  0  0  0
    5.8125   -2.4877   -0.7243 H   0  0  0  0  0  0  0  0  0  0  0  0
    6.2955   -1.7706    0.8474 H   0  0  0  0  0  0  0  0  0  0  0  0
   -5.6865   -2.5439   -1.0249 H   0  0  0  0  0  0  0  0  0  0  0  0
   -8.2892    0.8632   -1.1907 H   0  0  0  0  0  0  0  0  0  0  0  0
   -7.9493   -1.5919   -1.2925 H   0  0  0  0  0  0  0  0  0  0  0  0
   -0.9089   -0.5712    1.7094 H   0  0  0  0  0  0  0  0  0  0  0  0
   -2.2533   -4.3680    0.1816 H   0  0  0  0  0  0  0  0  0  0  0  0
    0.0283   -5.2762    0.4402 H   0  0  0  0  0  0  0  0  0  0  0  0
    1.8214   -3.9041    1.3035 H   0  0  0  0  0  0  0  0  0  0  0  0
    3.5374   -1.1589    2.5955 H   0  0  0  0  0  0  0  0  0  0  0  0
    3.2733   -2.2107    1.2085 H   0  0  0  0  0  0  0  0  0  0  0  0
    2.8655   -2.7570    2.8952 H   0  0  0  0  0  0  0  0  0  0  0  0
  1 18  1  0  0  0  0
  1 19  1  0  0  0  0
  2 16  1  0  0  0  0
  2 23  1  0  0  0  0
  3 17  1  0  0  0  0
  3 24  1  0  0  0  0
  4 32  1  0  0  0  0
  4 35  1  0  0  0  0
  5  6  1  0  0  0  0
  5  7  1  0  0  0  0
  5  9  1  0  0  0  0
  6  8  1  0  0  0  0
  6 36  1  0  0  0  0
  6 37  1  0  0  0  0
  7 10  1  0  0  0  0
  7 38  1  0  0  0  0
  7 39  1  0  0  0  0
  8 11  1  0  0  0  0
  8 40  1  0  0  0  0
  8 41  1  0  0  0  0
  9 12  1  0  0  0  0
  9 42  1  0  0  0  0
  9 43  1  0  0  0  0
 10 11  1  0  0  0  0
 10 14  2  0  0  0  0
 11 15  2  0  0  0  0
 12 13  1  0  0  0  0
 12 44  1  0  0  0  0
 12 45  1  0  0  0  0
 13 18  1  0  0  0  0
 13 46  1  0  0  0  0
 13 47  1  0  0  0  0
 14 16  1  0  0  0  0
 14 48  1  0  0  0  0
 15 17  1  0  0  0  0
 15 49  1  0  0  0  0
 16 17  2  0  0  0  0
 18 50  1  0  0  0  0
 18 51  1  0  0  0  0
 19 20  1  0  0  0  0
 19 25  2  0  0  0  0
 20 21  1  0  0  0  0
 20 26  2  0  0  0  0
 21 22  1  0  0  0  0
 21 52  1  0  0  0  0
 21 53  1  0  0  0  0
 22 27  1  0  0  0  0
 22 54  1  0  0  0  0
 22 55  1  0  0  0  0
 23 57  1  0  0  0  0
 23 58  1  0  0  0  0
 23 59  1  0  0  0  0
 24 60  1  0  0  0  0
 24 61  1  0  0  0  0
 24 62  1  0  0  0  0
 25 28  1  0  0  0  0
 25 56  1  0  0  0  0
 26 29  1  0  0  0  0
 26 63  1  0  0  0  0
 27 30  2  0  0  0  0
 27 31  1  0  0  0  0
 28 29  2  0  0  0  0
 28 64  1  0  0  0  0
 29 65  1  0  0  0  0
 30 32  1  0  0  0  0
 30 66  1  0  0  0  0
 31 33  2  0  0  0  0
 31 67  1  0  0  0  0
 32 34  2  0  0  0  0
 33 34  1  0  0  0  0
 33 68  1  0  0  0  0
 34 69  1  0  0  0  0
 35 70  1  0  0  0  0
 35 71  1  0  0  0  0
 35 72  1  0  0  0  0
M  END
> <PUBCHEM_COMPOUND_CID>
25156686

> <PUBCHEM_CONFORMER_RMSD>
1.6

> <PUBCHEM_CONFORMER_DIVERSEORDER>
1
49
90
102
53
32
130
65
75
101
109
110
37
84
119
30
59
126
111
81
100
80
117
76
8
108
89
7
58
104
60
19
79
52
128
4
62
96
120
16
70
118
22
66
127
27
74
55
54
2
14
82
103
85
12
73
91
69
88
87
38
68
114
107
97
57
125
86
5
106
83
13
20
36
63
10
46
31
77
45
121
67
35
39
51
17
122
40
28
105
113
115
18
25
98
42
95
56
92
124
47
21
48
34
93
112
64
116
43
29
44
26
9
129
99
6
50
24
33
11
61
94
72
78
3
71
123
15
23
41

> <PUBCHEM_MMFF94_PARTIAL_CHARGES>
43
1 -0.36
10 -0.14
11 -0.14
14 -0.15
15 -0.15
16 0.08
17 0.08
18 0.28
19 0.08
2 -0.36
20 -0.14
21 0.14
22 0.14
23 0.28
24 0.28
25 -0.15
26 -0.15
27 -0.14
28 -0.15
29 -0.15
3 -0.36
30 -0.15
31 -0.15
32 0.08
33 -0.15
34 -0.15
35 0.28
4 -0.36
48 0.15
49 0.15
5 -0.81
56 0.15
6 0.27
63 0.15
64 0.15
65 0.15
66 0.15
67 0.15
68 0.15
69 0.15
7 0.41
8 0.14
9 0.27

> <PUBCHEM_EFFECTIVE_ROTOR_COUNT>
12.8

> <PUBCHEM_PHARMACOPHORE_FEATURES>
9
1 1 acceptor
1 2 acceptor
1 3 acceptor
1 4 acceptor
1 5 cation
6 10 11 14 15 16 17 rings
6 19 20 25 26 28 29 rings
6 27 30 31 32 33 34 rings
6 5 6 7 8 10 11 rings

> <PUBCHEM_HEAVY_ATOM_COUNT>
35

> <PUBCHEM_ATOM_DEF_STEREO_COUNT>
0

> <PUBCHEM_ATOM_UDEF_STEREO_COUNT>
0

> <PUBCHEM_BOND_DEF_STEREO_COUNT>
0

> <PUBCHEM_BOND_UDEF_STEREO_COUNT>
0

> <PUBCHEM_ISOTOPIC_ATOM_COUNT>
0

> <PUBCHEM_COMPONENT_COUNT>
1

> <PUBCHEM_CACTVS_TAUTO_COUNT>
1

> <PUBCHEM_CONFORMER_ID>
017FDC4E00000001

> <PUBCHEM_MMFF94_ENERGY>
119.3628

> <PUBCHEM_FEATURE_SELFOVERLAP>
45.699

> <PUBCHEM_SHAPE_FINGERPRINT>
10483366 6 18409446968600786154
108634 29 18341334499898866520
10864689 126 18410285913985877085
11513181 2 17981328893390947903
11828532 37 18265336294857824503
11966995 178 18413385433397099125
12107698 1 18131912667587246573
12202916 173 18201997742471407358
13617811 41 17822283605390643565
14289585 56 17095803222612765708
14725015 67 18342451534708263125
14931854 50 18335691737821920861
15001296 14 18188477090496456057
15160629 131 17988925531840323311
15264996 154 17896579735813898739
15274700 256 18340759383452615368
15274700 259 17534874449020160557
15351339 4 18337104558122729371
15790856 291 18337392742176616103
16067689 134 18055073160838648785
17138139 8 18337676317539507720
17627616 140 18191586346323828491
17909252 39 17704082776034662564
21781051 124 17822579438463655699
22440779 20 16158807341667865251
23572383 38 18129663143815921588
354706 35 17256232173994921973
42767 46 18260543420566116999
437795 70 18272384065385555580
508706 21 18339379512057419733
513532 50 18130212857049356706

> <PUBCHEM_SHAPE_MULTIPOLES>
691.83
15.87
4.95
2.32
11.98
0.84
-1.62
-0.14
-9.67
0.52
3.14
-3.19
0.81
0.7

> <PUBCHEM_SHAPE_SELFOVERLAP>
1463.458

> <PUBCHEM_SHAPE_VOLUME>
389.1

> <PUBCHEM_COORDINATE_TYPE>
2
5
10

$$$$