44451719
  -OEChem-03242010103D

 63 67  0     1  0  0  0  0  0999 V2000
    9.0820    2.4194    0.5726 O   0  0  0  0  0  0  0  0  0  0  0  0
   10.1558   -0.0957    0.0850 O   0  0  0  0  0  0  0  0  0  0  0  0
   -4.6447   -2.0867    1.1349 O   0  0  0  0  0  0  0  0  0  0  0  0
    3.7660   -0.4711   -0.3400 N   0  0  2  0  0  0  0  0  0  0  0  0
   -4.0763   -0.3179   -0.3064 N   0  0  0  0  0  0  0  0  0  0  0  0
   -6.6479    0.4727   -0.1897 N   0  0  0  0  0  0  0  0  0  0  0  0
   -8.5819   -0.8721    1.2838 N   0  0  0  0  0  0  0  0  0  0  0  0
    4.2218   -1.7693    0.1718 C   0  0  0  0  0  0  0  0  0  0  0  0
    4.5303    0.6209    0.2886 C   0  0  0  0  0  0  0  0  0  0  0  0
    5.6665   -2.0249   -0.2697 C   0  0  0  0  0  0  0  0  0  0  0  0
    6.0274    0.4293    0.2036 C   0  0  0  0  0  0  0  0  0  0  0  0
    6.5720   -0.8472   -0.0194 C   0  0  0  0  0  0  0  0  0  0  0  0
    2.3342   -0.2931   -0.1014 C   0  0  0  0  0  0  0  0  0  0  0  0
    1.5072   -1.0477   -1.1427 C   0  0  0  0  0  0  0  0  0  0  0  0
    6.8841    1.5185    0.4124 C   0  0  0  0  0  0  0  0  0  0  0  0
    7.9627   -1.0088   -0.0672 C   0  0  0  0  0  0  0  0  0  0  0  0
    8.2676    1.3458    0.3725 C   0  0  0  0  0  0  0  0  0  0  0  0
    8.8061    0.0840    0.1308 C   0  0  0  0  0  0  0  0  0  0  0  0
    0.0282   -0.8544   -0.9212 C   0  0  0  0  0  0  0  0  0  0  0  0
   -0.6751   -1.7358   -0.0998 C   0  0  0  0  0  0  0  0  0  0  0  0
   -0.6367    0.2056   -1.5374 C   0  0  0  0  0  0  0  0  0  0  0  0
   -2.0431   -1.5570    0.1051 C   0  0  0  0  0  0  0  0  0  0  0  0
   -2.0046    0.3844   -1.3326 C   0  0  0  0  0  0  0  0  0  0  0  0
   -2.7079   -0.4968   -0.5113 C   0  0  0  0  0  0  0  0  0  0  0  0
    9.4748    2.6930    1.9162 C   0  0  0  0  0  0  0  0  0  0  0  0
   10.7865    0.0534   -1.1857 C   0  0  0  0  0  0  0  0  0  0  0  0
   -4.9400   -1.0945    0.4775 C   0  0  0  0  0  0  0  0  0  0  0  0
   -6.3517   -0.6306    0.5206 C   0  0  0  0  0  0  0  0  0  0  0  0
   -7.9191    0.9102   -0.1657 C   0  0  0  0  0  0  0  0  0  0  0  0
   -7.3049   -1.2934    1.2469 C   0  0  0  0  0  0  0  0  0  0  0  0
   -8.8984    0.2292    0.5805 C   0  0  0  0  0  0  0  0  0  0  0  0
   -8.2828    2.0479   -0.8823 C   0  0  0  0  0  0  0  0  0  0  0  0
  -10.2054    0.7110    0.5821 C   0  0  0  0  0  0  0  0  0  0  0  0
   -9.5935    2.5217   -0.8739 C   0  0  0  0  0  0  0  0  0  0  0  0
  -10.5590    1.8503   -0.1387 C   0  0  0  0  0  0  0  0  0  0  0  0
    3.6129   -2.5961   -0.2084 H   0  0  0  0  0  0  0  0  0  0  0  0
    4.1536   -1.8001    1.2680 H   0  0  0  0  0  0  0  0  0  0  0  0
    4.2625    0.7216    1.3491 H   0  0  0  0  0  0  0  0  0  0  0  0
    4.2755    1.5605   -0.2177 H   0  0  0  0  0  0  0  0  0  0  0  0
    5.6865   -2.2476   -1.3442 H   0  0  0  0  0  0  0  0  0  0  0  0
    6.0473   -2.9052    0.2618 H   0  0  0  0  0  0  0  0  0  0  0  0
    2.0566   -0.5894    0.9193 H   0  0  0  0  0  0  0  0  0  0  0  0
    2.0756    0.7715   -0.1885 H   0  0  0  0  0  0  0  0  0  0  0  0
    1.7207   -2.1228   -1.1291 H   0  0  0  0  0  0  0  0  0  0  0  0
    1.7700   -0.7073   -2.1533 H   0  0  0  0  0  0  0  0  0  0  0  0
    6.4695    2.5051    0.6064 H   0  0  0  0  0  0  0  0  0  0  0  0
    8.3883   -1.9911   -0.2592 H   0  0  0  0  0  0  0  0  0  0  0  0
   -0.1662   -2.5638    0.3869 H   0  0  0  0  0  0  0  0  0  0  0  0
   -0.0992    0.8998   -2.1780 H   0  0  0  0  0  0  0  0  0  0  0  0
   -2.5160   -2.2802    0.7543 H   0  0  0  0  0  0  0  0  0  0  0  0
   -2.5099    1.2151   -1.8188 H   0  0  0  0  0  0  0  0  0  0  0  0
   10.1257    3.5716    1.9105 H   0  0  0  0  0  0  0  0  0  0  0  0
   10.0308    1.8483    2.3348 H   0  0  0  0  0  0  0  0  0  0  0  0
    8.5985    2.9103    2.5351 H   0  0  0  0  0  0  0  0  0  0  0  0
   11.8594   -0.1131   -1.0571 H   0  0  0  0  0  0  0  0  0  0  0  0
   10.6335    1.0646   -1.5756 H   0  0  0  0  0  0  0  0  0  0  0  0
   10.3999   -0.6856   -1.8946 H   0  0  0  0  0  0  0  0  0  0  0  0
   -4.4884    0.4795   -0.7866 H   0  0  0  0  0  0  0  0  0  0  0  0
   -7.0975   -2.1838    1.8279 H   0  0  0  0  0  0  0  0  0  0  0  0
   -7.5353    2.5842   -1.4635 H   0  0  0  0  0  0  0  0  0  0  0  0
  -10.9730    0.1941    1.1548 H   0  0  0  0  0  0  0  0  0  0  0  0
   -9.8557    3.4105   -1.4396 H   0  0  0  0  0  0  0  0  0  0  0  0
  -11.5837    2.2088   -0.1237 H   0  0  0  0  0  0  0  0  0  0  0  0
  1 17  1  0  0  0  0
  1 25  1  0  0  0  0
  2 18  1  0  0  0  0
  2 26  1  0  0  0  0
  3 27  2  0  0  0  0
  4  8  1  0  0  0  0
  4  9  1  0  0  0  0
  4 13  1  0  0  0  0
  5 24  1  0  0  0  0
  5 27  1  0  0  0  0
  5 58  1  0  0  0  0
  6 28  2  0  0  0  0
  6 29  1  0  0  0  0
  7 30  2  0  0  0  0
  7 31  1  0  0  0  0
  8 10  1  0  0  0  0
  8 36  1  0  0  0  0
  8 37  1  0  0  0  0
  9 11  1  0  0  0  0
  9 38  1  0  0  0  0
  9 39  1  0  0  0  0
 10 12  1  0  0  0  0
 10 40  1  0  0  0  0
 10 41  1  0  0  0  0
 11 12  1  0  0  0  0
 11 15  2  0  0  0  0
 12 16  2  0  0  0  0
 13 14  1  0  0  0  0
 13 42  1  0  0  0  0
 13 43  1  0  0  0  0
 14 19  1  0  0  0  0
 14 44  1  0  0  0  0
 14 45  1  0  0  0  0
 15 17  1  0  0  0  0
 15 46  1  0  0  0  0
 16 18  1  0  0  0  0
 16 47  1  0  0  0  0
 17 18  2  0  0  0  0
 19 20  2  0  0  0  0
 19 21  1  0  0  0  0
 20 22  1  0  0  0  0
 20 48  1  0  0  0  0
 21 23  2  0  0  0  0
 21 49  1  0  0  0  0
 22 24  2  0  0  0  0
 22 50  1  0  0  0  0
 23 24  1  0  0  0  0
 23 51  1  0  0  0  0
 25 52  1  0  0  0  0
 25 53  1  0  0  0  0
 25 54  1  0  0  0  0
 26 55  1  0  0  0  0
 26 56  1  0  0  0  0
 26 57  1  0  0  0  0
 27 28  1  0  0  0  0
 28 30  1  0  0  0  0
 29 31  1  0  0  0  0
 29 32  2  0  0  0  0
 30 59  1  0  0  0  0
 31 33  2  0  0  0  0
 32 34  1  0  0  0  0
 32 60  1  0  0  0  0
 33 35  1  0  0  0  0
 33 61  1  0  0  0  0
 34 35  2  0  0  0  0
 34 62  1  0  0  0  0
 35 63  1  0  0  0  0
M  END
> <PUBCHEM_COMPOUND_CID>
44451719

> <PUBCHEM_CONFORMER_RMSD>
1

> <PUBCHEM_CONFORMER_DIVERSEORDER>
1
60
29
61
90
26
42
47
17
74
71
24
87
95
94
52
67
44
31
78
27
15
13
7
76
49
41
58
20
66
21
88
93
12
53
11
92
77
64
70
80
56
18
23
86
34
45
83
51
2
91
63
57
28
9
22
68
10
46
50
89
48
54
25
62
72
4
85
69
8
81
79
33
37
75
84
6
19
30
32
35
43
5
55
3
40
82
73
59
65
38
14
16
36
39

> <PUBCHEM_MMFF94_PARTIAL_CHARGES>
47
1 -0.36
10 0.14
11 -0.14
12 -0.14
13 0.27
14 0.14
15 -0.15
16 -0.15
17 0.08
18 0.08
19 -0.14
2 -0.36
20 -0.15
21 -0.15
22 -0.15
23 -0.15
24 0.12
25 0.28
26 0.28
27 0.54
28 0.4
29 0.31
3 -0.57
30 0.16
31 0.31
32 -0.15
33 -0.15
34 -0.15
35 -0.15
4 -0.81
46 0.15
47 0.15
48 0.15
49 0.15
5 -0.55
50 0.15
51 0.15
58 0.37
59 0.15
6 -0.62
60 0.15
61 0.15
62 0.15
63 0.15
7 -0.62
8 0.27
9 0.41

> <PUBCHEM_EFFECTIVE_ROTOR_COUNT>
8.8

> <PUBCHEM_PHARMACOPHORE_FEATURES>
12
1 1 acceptor
1 2 acceptor
1 3 acceptor
1 4 cation
1 5 donor
1 6 acceptor
1 7 acceptor
6 11 12 15 16 17 18 rings
6 19 20 21 22 23 24 rings
6 29 31 32 33 34 35 rings
6 4 8 9 10 11 12 rings
6 6 7 28 29 30 31 rings

> <PUBCHEM_HEAVY_ATOM_COUNT>
35

> <PUBCHEM_ATOM_DEF_STEREO_COUNT>
0

> <PUBCHEM_ATOM_UDEF_STEREO_COUNT>
0

> <PUBCHEM_BOND_DEF_STEREO_COUNT>
0

> <PUBCHEM_BOND_UDEF_STEREO_COUNT>
0

> <PUBCHEM_ISOTOPIC_ATOM_COUNT>
0

> <PUBCHEM_COMPONENT_COUNT>
1

> <PUBCHEM_CACTVS_TAUTO_COUNT>
2

> <PUBCHEM_CONFORMER_ID>
02A6478700000001

> <PUBCHEM_MMFF94_ENERGY>
123.2701

> <PUBCHEM_FEATURE_SELFOVERLAP>
60.967

> <PUBCHEM_SHAPE_FINGERPRINT>
10 15 18412263938934751111
10076449 9 11025515021431795023
10168742 298 9871473162174780240
10580692 12 18260831488982531683
10674148 151 17095527296955087185
11061554 47 18261954051689671565
11135609 127 13542170733309940738
11408170 108 13479403942973825864
11409948 35 18129385913549496350
11578821 258 18202283606931666113
11607047 141 18261947442072665346
12013929 2 18410013208915997622
12089408 11 17917706920339186462
12522641 33 17346882225763751479
12539745 222 12757141365038157039
12539747 363 16877662383294100141
13553643 46 18272654545230957025
14117953 113 13686299097627639266
14251764 46 13542464258703912054
14344974 52 11527937959698829374
14395042 24 17530967968860968725
14617042 71 18341895251420207256
15065858 18 18408604743538207503
15510794 2 18334860502151350779
15773216 30 13038642707814994076
15840311 113 18271810155794076004
1754911 235 13542463151351293243
1818759 1 12612750207553024768
19315958 150 18341616992572388646
19841028 212 17531524270189217450
2026 5 11242234252572525816
21362267 2 18059843000792623056
21362267 313 18041274349537461474
21792934 111 18186802474052225180
22149856 69 18333731334802433620
23576562 1 14979091718424227009
306946 40 18412539899859275493
3092352 35 17060620001216557319
335352 9 14189573044308394554
335507 130 13767926823309257947
4403749 210 18201156663089443991
4516262 110 17704353290813762454
45377200 153 9871453319563100589
4760202 170 16271638006089072816
5219985 9 15068343414973063327
54039377 194 8358253744755284315
57035037 87 18412546488217482857
59521660 218 16845300375864871031
6126387 218 18260831484518505897
636775 72 18337391540440321637
636775 8 11527939068433199845
9937071 3 11746932088517448848
9953998 17 18259703423884826447

> <PUBCHEM_SHAPE_MULTIPOLES>
682.75
46.84
2.27
1.18
3.12
0.93
-0.04
27.07
-7.46
-0.46
-0.45
0.08
0.22
4.19

> <PUBCHEM_SHAPE_SELFOVERLAP>
1493.871

> <PUBCHEM_SHAPE_VOLUME>
369.9

> <PUBCHEM_COORDINATE_TYPE>
2
5
10

$$$$