24808157
  -OEChem-03242010103D

 54 56  0     0  0  0  0  0  0999 V2000
   -1.5384    1.6688   -0.5146 O   0  0  0  0  0  0  0  0  0  0  0  0
    2.5420   -3.4253   -0.0567 O   0  0  0  0  0  0  0  0  0  0  0  0
    3.4541    1.5060   -1.8232 O   0  0  0  0  0  0  0  0  0  0  0  0
    4.6016    1.3993    0.7057 O   0  0  0  0  0  0  0  0  0  0  0  0
   -2.3782   -0.8006    0.6735 C   0  0  0  0  0  0  0  0  0  0  0  0
   -1.9660   -1.6099   -0.5721 C   0  0  0  0  0  0  0  0  0  0  0  0
   -3.3257    0.3316    0.3598 C   0  0  0  0  0  0  0  0  0  0  0  0
   -1.0463   -2.7472   -0.2811 C   0  0  0  0  0  0  0  0  0  0  0  0
   -2.8593    1.5119   -0.2194 C   0  0  0  0  0  0  0  0  0  0  0  0
   -4.6813    0.1883    0.6556 C   0  0  0  0  0  0  0  0  0  0  0  0
    0.3347   -2.5512   -0.3035 C   0  0  0  0  0  0  0  0  0  0  0  0
   -0.8563    2.7479    0.1211 C   0  0  0  0  0  0  0  0  0  0  0  0
   -1.5672   -4.0076    0.0112 C   0  0  0  0  0  0  0  0  0  0  0  0
   -3.7487    2.5484   -0.5028 C   0  0  0  0  0  0  0  0  0  0  0  0
    0.5929    2.3896    0.2730 C   0  0  0  0  0  0  0  0  0  0  0  0
   -5.5705    1.2249    0.3723 C   0  0  0  0  0  0  0  0  0  0  0  0
   -5.1043    2.4050   -0.2068 C   0  0  0  0  0  0  0  0  0  0  0  0
    1.1947   -3.6159   -0.0340 C   0  0  0  0  0  0  0  0  0  0  0  0
   -0.7073   -5.0722    0.2808 C   0  0  0  0  0  0  0  0  0  0  0  0
    1.3640    2.1098   -0.8553 C   0  0  0  0  0  0  0  0  0  0  0  0
    0.6736   -4.8764    0.2582 C   0  0  0  0  0  0  0  0  0  0  0  0
    1.1687    2.3358    1.5424 C   0  0  0  0  0  0  0  0  0  0  0  0
    2.7110    1.7762   -0.7140 C   0  0  0  0  0  0  0  0  0  0  0  0
    3.2869    1.7226    0.5554 C   0  0  0  0  0  0  0  0  0  0  0  0
    2.5156    2.0022    1.6835 C   0  0  0  0  0  0  0  0  0  0  0  0
    3.0069   -2.1114   -0.3625 C   0  0  0  0  0  0  0  0  0  0  0  0
    2.7899    1.5829   -3.0831 C   0  0  0  0  0  0  0  0  0  0  0  0
    5.1130    1.3665    2.0367 C   0  0  0  0  0  0  0  0  0  0  0  0
   -1.4879   -0.3965    1.1736 H   0  0  0  0  0  0  0  0  0  0  0  0
   -2.8373   -1.4730    1.4106 H   0  0  0  0  0  0  0  0  0  0  0  0
   -2.8675   -1.9914   -1.0714 H   0  0  0  0  0  0  0  0  0  0  0  0
   -1.4987   -0.9485   -1.3137 H   0  0  0  0  0  0  0  0  0  0  0  0
   -5.0600   -0.7262    1.1045 H   0  0  0  0  0  0  0  0  0  0  0  0
    0.6848   -1.5500   -0.5333 H   0  0  0  0  0  0  0  0  0  0  0  0
   -0.9440    3.6490   -0.4976 H   0  0  0  0  0  0  0  0  0  0  0  0
   -1.3018    2.9648    1.1009 H   0  0  0  0  0  0  0  0  0  0  0  0
   -2.6412   -4.1727    0.0337 H   0  0  0  0  0  0  0  0  0  0  0  0
   -3.4020    3.4703   -0.9618 H   0  0  0  0  0  0  0  0  0  0  0  0
   -6.6262    1.1129    0.6015 H   0  0  0  0  0  0  0  0  0  0  0  0
   -5.7971    3.2113   -0.4294 H   0  0  0  0  0  0  0  0  0  0  0  0
   -1.1129   -6.0536    0.5088 H   0  0  0  0  0  0  0  0  0  0  0  0
    0.8622    2.1706   -1.8153 H   0  0  0  0  0  0  0  0  0  0  0  0
    1.3384   -5.7096    0.4690 H   0  0  0  0  0  0  0  0  0  0  0  0
    0.5794    2.5501    2.4301 H   0  0  0  0  0  0  0  0  0  0  0  0
    2.8951    1.9793    2.6993 H   0  0  0  0  0  0  0  0  0  0  0  0
    4.1012   -2.1410   -0.3390 H   0  0  0  0  0  0  0  0  0  0  0  0
    2.6911   -1.3900    0.3982 H   0  0  0  0  0  0  0  0  0  0  0  0
    2.7171   -1.8049   -1.3733 H   0  0  0  0  0  0  0  0  0  0  0  0
    1.9897    0.8390   -3.1631 H   0  0  0  0  0  0  0  0  0  0  0  0
    2.4389    2.5989   -3.2935 H   0  0  0  0  0  0  0  0  0  0  0  0
    3.5295    1.3369   -3.8522 H   0  0  0  0  0  0  0  0  0  0  0  0
    5.0701    2.3533    2.5101 H   0  0  0  0  0  0  0  0  0  0  0  0
    4.6226    0.5935    2.6381 H   0  0  0  0  0  0  0  0  0  0  0  0
    6.1709    1.0924    1.9686 H   0  0  0  0  0  0  0  0  0  0  0  0
  1  9  1  0  0  0  0
  1 12  1  0  0  0  0
  2 18  1  0  0  0  0
  2 26  1  0  0  0  0
  3 23  1  0  0  0  0
  3 27  1  0  0  0  0
  4 24  1  0  0  0  0
  4 28  1  0  0  0  0
  5  6  1  0  0  0  0
  5  7  1  0  0  0  0
  5 29  1  0  0  0  0
  5 30  1  0  0  0  0
  6  8  1  0  0  0  0
  6 31  1  0  0  0  0
  6 32  1  0  0  0  0
  7  9  1  0  0  0  0
  7 10  2  0  0  0  0
  8 11  2  0  0  0  0
  8 13  1  0  0  0  0
  9 14  2  0  0  0  0
 10 16  1  0  0  0  0
 10 33  1  0  0  0  0
 11 18  1  0  0  0  0
 11 34  1  0  0  0  0
 12 15  1  0  0  0  0
 12 35  1  0  0  0  0
 12 36  1  0  0  0  0
 13 19  2  0  0  0  0
 13 37  1  0  0  0  0
 14 17  1  0  0  0  0
 14 38  1  0  0  0  0
 15 20  2  0  0  0  0
 15 22  1  0  0  0  0
 16 17  2  0  0  0  0
 16 39  1  0  0  0  0
 17 40  1  0  0  0  0
 18 21  2  0  0  0  0
 19 21  1  0  0  0  0
 19 41  1  0  0  0  0
 20 23  1  0  0  0  0
 20 42  1  0  0  0  0
 21 43  1  0  0  0  0
 22 25  2  0  0  0  0
 22 44  1  0  0  0  0
 23 24  2  0  0  0  0
 24 25  1  0  0  0  0
 25 45  1  0  0  0  0
 26 46  1  0  0  0  0
 26 47  1  0  0  0  0
 26 48  1  0  0  0  0
 27 49  1  0  0  0  0
 27 50  1  0  0  0  0
 27 51  1  0  0  0  0
 28 52  1  0  0  0  0
 28 53  1  0  0  0  0
 28 54  1  0  0  0  0
M  END
> <PUBCHEM_COMPOUND_CID>
24808157

> <PUBCHEM_CONFORMER_RMSD>
1.4

> <PUBCHEM_CONFORMER_DIVERSEORDER>
1
75
34
66
33
91
62
26
94
24
56
71
108
82
48
63
116
104
90
23
118
85
18
86
93
68
52
51
44
105
15
37
30
69
101
67
97
84
42
57
100
55
43
5
114
98
88
115
32
78
95
61
28
70
31
45
79
87
6
50
53
41
21
99
2
25
10
81
77
49
109
12
83
107
36
47
29
74
9
20
39
64
11
117
80
58
19
106
35
17
27
22
46
103
111
102
3
96
54
59
40
112
110
7
4
113
73
92
65
89
16
8
76
13
38
72
14
60

> <PUBCHEM_MMFF94_PARTIAL_CHARGES>
39
1 -0.36
10 -0.15
11 -0.15
12 0.42
13 -0.15
14 -0.15
15 -0.14
16 -0.15
17 -0.15
18 0.08
19 -0.15
2 -0.36
20 -0.15
21 -0.15
22 -0.15
23 0.08
24 0.08
25 -0.15
26 0.28
27 0.28
28 0.28
3 -0.36
33 0.15
34 0.15
37 0.15
38 0.15
39 0.15
4 -0.36
40 0.15
41 0.15
42 0.15
43 0.15
44 0.15
45 0.15
5 0.14
6 0.14
7 -0.14
8 -0.14
9 0.08

> <PUBCHEM_EFFECTIVE_ROTOR_COUNT>
9

> <PUBCHEM_PHARMACOPHORE_FEATURES>
7
1 1 acceptor
1 2 acceptor
1 3 acceptor
1 4 acceptor
6 15 20 22 23 24 25 rings
6 7 9 10 14 16 17 rings
6 8 11 13 18 19 21 rings

> <PUBCHEM_HEAVY_ATOM_COUNT>
28

> <PUBCHEM_ATOM_DEF_STEREO_COUNT>
0

> <PUBCHEM_ATOM_UDEF_STEREO_COUNT>
0

> <PUBCHEM_BOND_DEF_STEREO_COUNT>
0

> <PUBCHEM_BOND_UDEF_STEREO_COUNT>
0

> <PUBCHEM_ISOTOPIC_ATOM_COUNT>
0

> <PUBCHEM_COMPONENT_COUNT>
1

> <PUBCHEM_CACTVS_TAUTO_COUNT>
1

> <PUBCHEM_CONFORMER_ID>
017A8ADD00000001

> <PUBCHEM_MMFF94_ENERGY>
109.3818

> <PUBCHEM_FEATURE_SELFOVERLAP>
35.528

> <PUBCHEM_SHAPE_FINGERPRINT>
10940486 97 18118120514025055636
1100329 8 18340205189582561334
11014199 57 16827002058495072823
11049842 53 17972609787668505733
12422481 6 18117812462095834936
12553582 1 16395494966419807711
12788726 201 17469896935435801190
13122387 1 17834397821924324618
1361 2 18410568466851978411
138480 1 17906732501577065899
14028597 1 17703519796723359097
14863182 85 18336828598395976040
14866123 147 18267574887335708619
15927050 60 18342451547714770383
19930381 70 18194399983694515715
20764821 26 18409727365556685455
20775530 9 17256809992660910738
21344244 246 18267282302217022117
22956985 138 18117840997864297803
229767 44 18265312002817724058
23559900 14 18117844291987935573
3027735 51 18197765803873191047
3298306 158 18411985745687438613
338550 245 18335142003034463356
508706 21 18197786711246499814
5265222 85 18337678641196410028
532947 4 18340762633782937441
5385378 56 18268717121973933897
602551 16 18268424818783296000
653340 110 17836914969328678944

> <PUBCHEM_SHAPE_MULTIPOLES>
552.75
9.14
6.85
1.56
4.36
11.43
-0.72
-8.55
1.68
-0.81
0.26
-2.45
-1.43
0.54

> <PUBCHEM_SHAPE_SELFOVERLAP>
1178.879

> <PUBCHEM_SHAPE_VOLUME>
307.6

> <PUBCHEM_COORDINATE_TYPE>
2
5
10

$$$$