25157845
  -OEChem-03242010103D

 69 72  0     1  0  0  0  0  0999 V2000
   -2.8463   -2.1640   -0.8870 O   0  0  0  0  0  0  0  0  0  0  0  0
    7.7650   -0.9434    1.1506 O   0  0  0  0  0  0  0  0  0  0  0  0
    7.8309    0.9204   -0.9082 O   0  0  0  0  0  0  0  0  0  0  0  0
   -4.1169    2.3015    2.6915 O   0  0  0  0  0  0  0  0  0  0  0  0
    1.7552   -0.9248    0.0004 N   0  0  1  0  0  0  0  0  0  0  0  0
    1.6989    0.4753   -0.4372 C   0  0  0  0  0  0  0  0  0  0  0  0
    2.8702   -1.1190    0.9440 C   0  0  0  0  0  0  0  0  0  0  0  0
    2.9458    0.8141   -1.2605 C   0  0  0  0  0  0  0  0  0  0  0  0
    4.1899   -0.5943    0.4264 C   0  0  0  0  0  0  0  0  0  0  0  0
    4.2232    0.3655   -0.5997 C   0  0  0  0  0  0  0  0  0  0  0  0
    0.4913   -1.3277    0.6158 C   0  0  0  0  0  0  0  0  0  0  0  0
   -0.5667   -1.5683   -0.4563 C   0  0  0  0  0  0  0  0  0  0  0  0
    5.3893   -1.0176    1.0150 C   0  0  0  0  0  0  0  0  0  0  0  0
    5.4554    0.8596   -1.0472 C   0  0  0  0  0  0  0  0  0  0  0  0
   -1.9018   -1.9690    0.1565 C   0  0  0  0  0  0  0  0  0  0  0  0
    6.6105   -0.5125    0.5694 C   0  0  0  0  0  0  0  0  0  0  0  0
    6.6436    0.4232   -0.4620 C   0  0  0  0  0  0  0  0  0  0  0  0
   -4.1612   -1.9213   -0.5845 C   0  0  0  0  0  0  0  0  0  0  0  0
   -4.8848   -0.9504   -1.2767 C   0  0  0  0  0  0  0  0  0  0  0  0
   -4.2449   -0.1531   -2.3648 C   0  0  0  0  0  0  0  0  0  0  0  0
   -4.2606    1.3680   -2.1191 C   0  0  0  0  0  0  0  0  0  0  0  0
   -4.7745   -2.6579    0.4288 C   0  0  0  0  0  0  0  0  0  0  0  0
   -6.2217   -0.7158   -0.9553 C   0  0  0  0  0  0  0  0  0  0  0  0
   -3.5067    1.7778   -0.8775 C   0  0  0  0  0  0  0  0  0  0  0  0
    7.6438   -1.9022    2.1995 C   0  0  0  0  0  0  0  0  0  0  0  0
    7.7771    1.8743   -1.9672 C   0  0  0  0  0  0  0  0  0  0  0  0
   -6.1113   -2.4234    0.7501 C   0  0  0  0  0  0  0  0  0  0  0  0
   -6.8351   -1.4523    0.0581 C   0  0  0  0  0  0  0  0  0  0  0  0
   -4.1686    1.8516    0.3482 C   0  0  0  0  0  0  0  0  0  0  0  0
   -2.1479    2.0827   -0.9557 C   0  0  0  0  0  0  0  0  0  0  0  0
   -3.4716    2.2301    1.4955 C   0  0  0  0  0  0  0  0  0  0  0  0
   -1.4508    2.4613    0.1916 C   0  0  0  0  0  0  0  0  0  0  0  0
   -2.1126    2.5350    1.4172 C   0  0  0  0  0  0  0  0  0  0  0  0
   -5.5063    1.9764    2.7002 C   0  0  0  0  0  0  0  0  0  0  0  0
    1.6272    1.1484    0.4280 H   0  0  0  0  0  0  0  0  0  0  0  0
    0.8345    0.6777   -1.0756 H   0  0  0  0  0  0  0  0  0  0  0  0
    2.9784   -2.1938    1.1363 H   0  0  0  0  0  0  0  0  0  0  0  0
    2.6605   -0.6212    1.9004 H   0  0  0  0  0  0  0  0  0  0  0  0
    2.9739    1.8977   -1.4265 H   0  0  0  0  0  0  0  0  0  0  0  0
    2.8801    0.3262   -2.2415 H   0  0  0  0  0  0  0  0  0  0  0  0
    0.6261   -2.2718    1.1601 H   0  0  0  0  0  0  0  0  0  0  0  0
    0.1473   -0.5864    1.3487 H   0  0  0  0  0  0  0  0  0  0  0  0
   -0.7362   -0.6849   -1.0797 H   0  0  0  0  0  0  0  0  0  0  0  0
   -0.2365   -2.3558   -1.1466 H   0  0  0  0  0  0  0  0  0  0  0  0
    5.3008   -1.7424    1.8178 H   0  0  0  0  0  0  0  0  0  0  0  0
    5.4181    1.5817   -1.8563 H   0  0  0  0  0  0  0  0  0  0  0  0
   -2.2389   -1.1837    0.8456 H   0  0  0  0  0  0  0  0  0  0  0  0
   -1.7945   -2.9044    0.7173 H   0  0  0  0  0  0  0  0  0  0  0  0
   -3.2089   -0.4668   -2.5397 H   0  0  0  0  0  0  0  0  0  0  0  0
   -4.7760   -0.3639   -3.3023 H   0  0  0  0  0  0  0  0  0  0  0  0
   -5.2884    1.7484   -2.0649 H   0  0  0  0  0  0  0  0  0  0  0  0
   -3.8171    1.8694   -2.9895 H   0  0  0  0  0  0  0  0  0  0  0  0
   -4.2263   -3.4233    0.9712 H   0  0  0  0  0  0  0  0  0  0  0  0
   -6.8053    0.0279   -1.4907 H   0  0  0  0  0  0  0  0  0  0  0  0
    8.6576   -2.1321    2.5439 H   0  0  0  0  0  0  0  0  0  0  0  0
    7.2107   -2.8419    1.8400 H   0  0  0  0  0  0  0  0  0  0  0  0
    7.1020   -1.4939    3.0594 H   0  0  0  0  0  0  0  0  0  0  0  0
    8.8092    2.1621   -2.1937 H   0  0  0  0  0  0  0  0  0  0  0  0
    7.2533    2.7869   -1.6628 H   0  0  0  0  0  0  0  0  0  0  0  0
    7.3615    1.4389   -2.8824 H   0  0  0  0  0  0  0  0  0  0  0  0
   -6.5896   -2.9983    1.5378 H   0  0  0  0  0  0  0  0  0  0  0  0
   -7.8767   -1.2714    0.3069 H   0  0  0  0  0  0  0  0  0  0  0  0
   -5.2286    1.6265    0.3542 H   0  0  0  0  0  0  0  0  0  0  0  0
   -1.6205    2.0271   -1.9042 H   0  0  0  0  0  0  0  0  0  0  0  0
   -0.3948    2.7054    0.1306 H   0  0  0  0  0  0  0  0  0  0  0  0
   -1.5643    2.8313    2.3073 H   0  0  0  0  0  0  0  0  0  0  0  0
   -5.8560    2.0820    3.7324 H   0  0  0  0  0  0  0  0  0  0  0  0
   -5.6779    0.9340    2.4107 H   0  0  0  0  0  0  0  0  0  0  0  0
   -6.0880    2.6782    2.0930 H   0  0  0  0  0  0  0  0  0  0  0  0
  1 15  1  0  0  0  0
  1 18  1  0  0  0  0
  2 16  1  0  0  0  0
  2 25  1  0  0  0  0
  3 17  1  0  0  0  0
  3 26  1  0  0  0  0
  4 31  1  0  0  0  0
  4 34  1  0  0  0  0
  5  6  1  0  0  0  0
  5  7  1  0  0  0  0
  5 11  1  0  0  0  0
  6  8  1  0  0  0  0
  6 35  1  0  0  0  0
  6 36  1  0  0  0  0
  7  9  1  0  0  0  0
  7 37  1  0  0  0  0
  7 38  1  0  0  0  0
  8 10  1  0  0  0  0
  8 39  1  0  0  0  0
  8 40  1  0  0  0  0
  9 10  1  0  0  0  0
  9 13  2  0  0  0  0
 10 14  2  0  0  0  0
 11 12  1  0  0  0  0
 11 41  1  0  0  0  0
 11 42  1  0  0  0  0
 12 15  1  0  0  0  0
 12 43  1  0  0  0  0
 12 44  1  0  0  0  0
 13 16  1  0  0  0  0
 13 45  1  0  0  0  0
 14 17  1  0  0  0  0
 14 46  1  0  0  0  0
 15 47  1  0  0  0  0
 15 48  1  0  0  0  0
 16 17  2  0  0  0  0
 18 19  1  0  0  0  0
 18 22  2  0  0  0  0
 19 20  1  0  0  0  0
 19 23  2  0  0  0  0
 20 21  1  0  0  0  0
 20 49  1  0  0  0  0
 20 50  1  0  0  0  0
 21 24  1  0  0  0  0
 21 51  1  0  0  0  0
 21 52  1  0  0  0  0
 22 27  1  0  0  0  0
 22 53  1  0  0  0  0
 23 28  1  0  0  0  0
 23 54  1  0  0  0  0
 24 29  2  0  0  0  0
 24 30  1  0  0  0  0
 25 55  1  0  0  0  0
 25 56  1  0  0  0  0
 25 57  1  0  0  0  0
 26 58  1  0  0  0  0
 26 59  1  0  0  0  0
 26 60  1  0  0  0  0
 27 28  2  0  0  0  0
 27 61  1  0  0  0  0
 28 62  1  0  0  0  0
 29 31  1  0  0  0  0
 29 63  1  0  0  0  0
 30 32  2  0  0  0  0
 30 64  1  0  0  0  0
 31 33  2  0  0  0  0
 32 33  1  0  0  0  0
 32 65  1  0  0  0  0
 33 66  1  0  0  0  0
 34 67  1  0  0  0  0
 34 68  1  0  0  0  0
 34 69  1  0  0  0  0
M  END
> <PUBCHEM_COMPOUND_CID>
25157845

> <PUBCHEM_CONFORMER_RMSD>
1.6

> <PUBCHEM_CONFORMER_DIVERSEORDER>
17
27
71
117
96
118
32
19
72
3
134
38
63
128
47
59
85
129
56
130
122
91
61
127
135
84
5
6
92
20
13
82
35
109
65
103
68
44
1
55
87
102
14
78
41
40
36
16
64
81
94
90
86
121
8
111
57
99
131
69
53
108
123
124
105
22
11
125
70
137
15
104
113
54
80
51
7
28
45
107
37
88
74
52
73
49
21
114
24
58
89
26
23
33
120
97
136
77
83
100
46
79
116
95
66
43
126
67
9
115
25
50
31
10
119
18
132
98
60
106
133
2
29
12
101
75
112
4
42
76
62
110
34
30
48
39
93

> <PUBCHEM_MMFF94_PARTIAL_CHARGES>
43
1 -0.36
10 -0.14
11 0.27
13 -0.15
14 -0.15
15 0.28
16 0.08
17 0.08
18 0.08
19 -0.14
2 -0.36
20 0.14
21 0.14
22 -0.15
23 -0.15
24 -0.14
25 0.28
26 0.28
27 -0.15
28 -0.15
29 -0.15
3 -0.36
30 -0.15
31 0.08
32 -0.15
33 -0.15
34 0.28
4 -0.36
45 0.15
46 0.15
5 -0.81
53 0.15
54 0.15
6 0.27
61 0.15
62 0.15
63 0.15
64 0.15
65 0.15
66 0.15
7 0.41
8 0.14
9 -0.14

> <PUBCHEM_EFFECTIVE_ROTOR_COUNT>
11.8

> <PUBCHEM_PHARMACOPHORE_FEATURES>
9
1 1 acceptor
1 2 acceptor
1 3 acceptor
1 4 acceptor
1 5 cation
6 18 19 22 23 27 28 rings
6 24 29 30 31 32 33 rings
6 5 6 7 8 9 10 rings
6 9 10 13 14 16 17 rings

> <PUBCHEM_HEAVY_ATOM_COUNT>
34

> <PUBCHEM_ATOM_DEF_STEREO_COUNT>
0

> <PUBCHEM_ATOM_UDEF_STEREO_COUNT>
0

> <PUBCHEM_BOND_DEF_STEREO_COUNT>
0

> <PUBCHEM_BOND_UDEF_STEREO_COUNT>
0

> <PUBCHEM_ISOTOPIC_ATOM_COUNT>
0

> <PUBCHEM_COMPONENT_COUNT>
1

> <PUBCHEM_CACTVS_TAUTO_COUNT>
1

> <PUBCHEM_CONFORMER_ID>
017FE0D500000011

> <PUBCHEM_MMFF94_ENERGY>
120.0626

> <PUBCHEM_FEATURE_SELFOVERLAP>
45.699

> <PUBCHEM_SHAPE_FINGERPRINT>
10454371 7 18272377490012372540
10625338 86 17417800769701274154
10670039 82 18343586243555859650
11007060 377 17531248387428106866
11578080 2 14978856281945818753
12082328 90 17988933258217274764
12166972 35 17822008756640777836
13560911 43 17749101231572383165
14068700 675 18130781322342152989
14118638 360 18202565051458197598
14400156 162 17458622290102800611
15183329 4 18408323294157019678
15338160 23 18059862723450380521
15419008 47 17418091040148768296
1577012 14 18335989697004575428
21026386 80 15140682484963192590
21236236 1 18342739606923318083
21792965 169 18187375324891934566
4197921 191 18334013908910957334
469060 322 17894640253679445935
484985 159 18413108386304713307
4918590 53 16805603685839375170
6299153 45 18114733829633351346
70634741 139 18187644747087606037

> <PUBCHEM_SHAPE_MULTIPOLES>
671.25
23.23
3.16
2.12
37.89
0.28
0.71
-3.93
0.75
-4.15
0.95
-1.55
1.21
-4.59

> <PUBCHEM_SHAPE_SELFOVERLAP>
1428.1

> <PUBCHEM_SHAPE_VOLUME>
375.3

> <PUBCHEM_COORDINATE_TYPE>
2
5
10

$$$$