24808156
  -OEChem-03242010103D

 54 56  0     0  0  0  0  0  0999 V2000
   -1.5759    1.3413   -0.2888 O   0  0  0  0  0  0  0  0  0  0  0  0
    0.7801    2.4099   -1.5839 O   0  0  0  0  0  0  0  0  0  0  0  0
    3.3440   -2.9540    0.1042 O   0  0  0  0  0  0  0  0  0  0  0  0
    3.4894    2.2152   -1.0619 O   0  0  0  0  0  0  0  0  0  0  0  0
   -2.0247   -1.3499    0.5891 C   0  0  0  0  0  0  0  0  0  0  0  0
   -1.3714   -1.9363   -0.6782 C   0  0  0  0  0  0  0  0  0  0  0  0
   -3.1414   -0.3802    0.2878 C   0  0  0  0  0  0  0  0  0  0  0  0
   -0.2792   -2.9135   -0.4024 C   0  0  0  0  0  0  0  0  0  0  0  0
   -2.8623    0.9189   -0.1368 C   0  0  0  0  0  0  0  0  0  0  0  0
   -4.4644   -0.7957    0.4382 C   0  0  0  0  0  0  0  0  0  0  0  0
   -1.1612    2.4527    0.5028 C   0  0  0  0  0  0  0  0  0  0  0  0
    1.0375   -2.4707   -0.2747 C   0  0  0  0  0  0  0  0  0  0  0  0
   -3.9064    1.8023   -0.4111 C   0  0  0  0  0  0  0  0  0  0  0  0
    0.3133    2.3474    0.7607 C   0  0  0  0  0  0  0  0  0  0  0  0
   -0.5742   -4.2708   -0.2746 C   0  0  0  0  0  0  0  0  0  0  0  0
   -5.5084    0.0878    0.1640 C   0  0  0  0  0  0  0  0  0  0  0  0
   -5.2295    1.3867   -0.2605 C   0  0  0  0  0  0  0  0  0  0  0  0
    2.0592   -3.3855   -0.0195 C   0  0  0  0  0  0  0  0  0  0  0  0
    1.2230    2.3309   -0.2967 C   0  0  0  0  0  0  0  0  0  0  0  0
    0.4474   -5.1854   -0.0194 C   0  0  0  0  0  0  0  0  0  0  0  0
    0.7708    2.2660    2.0758 C   0  0  0  0  0  0  0  0  0  0  0  0
    1.7641   -4.7428    0.1081 C   0  0  0  0  0  0  0  0  0  0  0  0
    2.5904    2.2329   -0.0386 C   0  0  0  0  0  0  0  0  0  0  0  0
    2.1379    2.1678    2.3338 C   0  0  0  0  0  0  0  0  0  0  0  0
    3.0478    2.1513    1.2766 C   0  0  0  0  0  0  0  0  0  0  0  0
    0.6508    3.7143   -2.1445 C   0  0  0  0  0  0  0  0  0  0  0  0
    3.5751   -1.5531   -0.0376 C   0  0  0  0  0  0  0  0  0  0  0  0
    4.8682    2.1126   -0.7116 C   0  0  0  0  0  0  0  0  0  0  0  0
   -1.2682   -0.8468    1.2062 H   0  0  0  0  0  0  0  0  0  0  0  0
   -2.4046   -2.1677    1.2161 H   0  0  0  0  0  0  0  0  0  0  0  0
   -2.1431   -2.4192   -1.2937 H   0  0  0  0  0  0  0  0  0  0  0  0
   -0.9810   -1.1273   -1.3097 H   0  0  0  0  0  0  0  0  0  0  0  0
   -4.6975   -1.8054    0.7656 H   0  0  0  0  0  0  0  0  0  0  0  0
   -1.3871    3.3866   -0.0233 H   0  0  0  0  0  0  0  0  0  0  0  0
   -1.7116    2.4698    1.4531 H   0  0  0  0  0  0  0  0  0  0  0  0
    1.2093   -1.4043   -0.3799 H   0  0  0  0  0  0  0  0  0  0  0  0
   -3.7052    2.8145   -0.7513 H   0  0  0  0  0  0  0  0  0  0  0  0
   -1.5962   -4.6281   -0.3701 H   0  0  0  0  0  0  0  0  0  0  0  0
   -6.5386   -0.2360    0.2800 H   0  0  0  0  0  0  0  0  0  0  0  0
   -6.0425    2.0738   -0.4761 H   0  0  0  0  0  0  0  0  0  0  0  0
    0.2178   -6.2422    0.0805 H   0  0  0  0  0  0  0  0  0  0  0  0
    0.0757    2.2765    2.9111 H   0  0  0  0  0  0  0  0  0  0  0  0
    2.5557   -5.4602    0.3069 H   0  0  0  0  0  0  0  0  0  0  0  0
    2.4930    2.1036    3.3582 H   0  0  0  0  0  0  0  0  0  0  0  0
    4.0937    2.0725    1.5524 H   0  0  0  0  0  0  0  0  0  0  0  0
    0.1370    4.4000   -1.4639 H   0  0  0  0  0  0  0  0  0  0  0  0
    0.0678    3.6344   -3.0661 H   0  0  0  0  0  0  0  0  0  0  0  0
    1.6400    4.1126   -2.3908 H   0  0  0  0  0  0  0  0  0  0  0  0
    4.6503   -1.3897    0.0881 H   0  0  0  0  0  0  0  0  0  0  0  0
    3.0710   -0.9840    0.7502 H   0  0  0  0  0  0  0  0  0  0  0  0
    3.3129   -1.1994   -1.0404 H   0  0  0  0  0  0  0  0  0  0  0  0
    5.2040    2.9842   -0.1395 H   0  0  0  0  0  0  0  0  0  0  0  0
    5.0885    1.1698   -0.2005 H   0  0  0  0  0  0  0  0  0  0  0  0
    5.4382    2.1074   -1.6465 H   0  0  0  0  0  0  0  0  0  0  0  0
  1  9  1  0  0  0  0
  1 11  1  0  0  0  0
  2 19  1  0  0  0  0
  2 26  1  0  0  0  0
  3 18  1  0  0  0  0
  3 27  1  0  0  0  0
  4 23  1  0  0  0  0
  4 28  1  0  0  0  0
  5  6  1  0  0  0  0
  5  7  1  0  0  0  0
  5 29  1  0  0  0  0
  5 30  1  0  0  0  0
  6  8  1  0  0  0  0
  6 31  1  0  0  0  0
  6 32  1  0  0  0  0
  7  9  1  0  0  0  0
  7 10  2  0  0  0  0
  8 12  2  0  0  0  0
  8 15  1  0  0  0  0
  9 13  2  0  0  0  0
 10 16  1  0  0  0  0
 10 33  1  0  0  0  0
 11 14  1  0  0  0  0
 11 34  1  0  0  0  0
 11 35  1  0  0  0  0
 12 18  1  0  0  0  0
 12 36  1  0  0  0  0
 13 17  1  0  0  0  0
 13 37  1  0  0  0  0
 14 19  2  0  0  0  0
 14 21  1  0  0  0  0
 15 20  2  0  0  0  0
 15 38  1  0  0  0  0
 16 17  2  0  0  0  0
 16 39  1  0  0  0  0
 17 40  1  0  0  0  0
 18 22  2  0  0  0  0
 19 23  1  0  0  0  0
 20 22  1  0  0  0  0
 20 41  1  0  0  0  0
 21 24  2  0  0  0  0
 21 42  1  0  0  0  0
 22 43  1  0  0  0  0
 23 25  2  0  0  0  0
 24 25  1  0  0  0  0
 24 44  1  0  0  0  0
 25 45  1  0  0  0  0
 26 46  1  0  0  0  0
 26 47  1  0  0  0  0
 26 48  1  0  0  0  0
 27 49  1  0  0  0  0
 27 50  1  0  0  0  0
 27 51  1  0  0  0  0
 28 52  1  0  0  0  0
 28 53  1  0  0  0  0
 28 54  1  0  0  0  0
M  END
> <PUBCHEM_COMPOUND_CID>
24808156

> <PUBCHEM_CONFORMER_RMSD>
1.4

> <PUBCHEM_CONFORMER_DIVERSEORDER>
1
71
29
87
73
45
137
86
16
97
116
119
89
105
99
126
120
124
47
36
39
27
8
94
82
106
15
62
91
85
132
23
98
133
50
101
125
104
51
68
79
31
80
118
21
100
114
78
76
122
42
22
72
60
28
69
108
129
136
13
112
35
48
96
30
64
131
49
6
32
84
52
83
40
115
18
75
67
55
111
123
113
12
53
88
34
92
70
25
56
81
77
109
66
130
63
90
61
9
54
43
7
46
74
95
102
37
103
93
57
65
110
5
58
3
128
24
4
33
107
127
38
117
26
59
11
20
135
10
2
41
44
14
121
19
17
134

> <PUBCHEM_MMFF94_PARTIAL_CHARGES>
39
1 -0.36
10 -0.15
11 0.42
12 -0.15
13 -0.15
14 -0.14
15 -0.15
16 -0.15
17 -0.15
18 0.08
19 0.08
2 -0.36
20 -0.15
21 -0.15
22 -0.15
23 0.08
24 -0.15
25 -0.15
26 0.28
27 0.28
28 0.28
3 -0.36
33 0.15
36 0.15
37 0.15
38 0.15
39 0.15
4 -0.36
40 0.15
41 0.15
42 0.15
43 0.15
44 0.15
45 0.15
5 0.14
6 0.14
7 -0.14
8 -0.14
9 0.08

> <PUBCHEM_EFFECTIVE_ROTOR_COUNT>
9

> <PUBCHEM_PHARMACOPHORE_FEATURES>
7
1 1 acceptor
1 2 acceptor
1 3 acceptor
1 4 acceptor
6 14 19 21 23 24 25 rings
6 7 9 10 13 16 17 rings
6 8 12 15 18 20 22 rings

> <PUBCHEM_HEAVY_ATOM_COUNT>
28

> <PUBCHEM_ATOM_DEF_STEREO_COUNT>
0

> <PUBCHEM_ATOM_UDEF_STEREO_COUNT>
0

> <PUBCHEM_BOND_DEF_STEREO_COUNT>
0

> <PUBCHEM_BOND_UDEF_STEREO_COUNT>
0

> <PUBCHEM_ISOTOPIC_ATOM_COUNT>
0

> <PUBCHEM_COMPONENT_COUNT>
1

> <PUBCHEM_CACTVS_TAUTO_COUNT>
1

> <PUBCHEM_CONFORMER_ID>
017A8ADC00000001

> <PUBCHEM_MMFF94_ENERGY>
111.6912

> <PUBCHEM_FEATURE_SELFOVERLAP>
35.53

> <PUBCHEM_SHAPE_FINGERPRINT>
10940486 97 17829894583259350124
1100329 8 18412824690260782990
11014199 57 17259629145007320862
11045515 52 17759808044476337455
11578080 2 13196888810630010479
12156800 1 15431757360717419474
12160290 23 17265548306168418399
12422481 6 18120904335884891640
12539773 59 14528713703818676380
13122387 1 18268149747512886522
138480 1 18194683653151549143
14028597 1 17773901773568434049
14251757 5 17834129915007901484
14866123 147 18051415359607174422
15927050 60 18270118044798509847
16719943 64 18339081622211575854
18681886 176 18116715325053171188
19930381 70 18338796689496496475
20764821 26 18338784697868645782
20775438 99 16965154680806903037
20775530 9 17690279313669989394
22956985 138 18335983086981861419
23559900 14 18335699395817324037
3027735 51 17910939559836379679
3298306 158 18342173405811541961
338550 245 18264770046036528623
508706 21 17981611781744019966
5265222 85 18121511408006319196
5385378 56 18340776970800737113
653340 110 17549248689849713752

> <PUBCHEM_SHAPE_MULTIPOLES>
552.75
8.27
7.24
1.41
7.12
9.59
0.24
-4.26
-0.23
-5.49
-0.87
-1.04
-1.85
0.14

> <PUBCHEM_SHAPE_SELFOVERLAP>
1179.664

> <PUBCHEM_SHAPE_VOLUME>
307.2

> <PUBCHEM_COORDINATE_TYPE>
2
5
10

$$$$