25223299
  -OEChem-03242010103D

 82 87  0     1  0  0  0  0  0999 V2000
   11.8721   -1.0444    0.0494 O   0  0  0  0  0  0  0  0  0  0  0  0
   12.6705    1.5932   -0.3021 O   0  0  0  0  0  0  0  0  0  0  0  0
   -0.8623   -3.5160   -0.6012 O   0  0  0  0  0  0  0  0  0  0  0  0
   -5.5277   -5.3962   -0.1028 O   0  0  0  0  0  0  0  0  0  0  0  0
   -8.2040   -1.5212   -0.2217 O   0  0  0  0  0  0  0  0  0  0  0  0
    6.2642    1.4039   -0.0244 N   0  0  2  0  0  0  0  0  0  0  0  0
   -1.0529   -1.3922    0.3893 N   0  0  0  0  0  0  0  0  0  0  0  0
   -6.0316   -0.6219   -0.2345 N   0  0  0  0  0  0  0  0  0  0  0  0
   -7.8065    3.1314   -0.8342 N   0  0  0  0  0  0  0  0  0  0  0  0
    6.6053    2.5094   -0.9282 C   0  0  0  0  0  0  0  0  0  0  0  0
    7.1560    0.2556   -0.2655 C   0  0  0  0  0  0  0  0  0  0  0  0
    8.0005    3.0455   -0.5918 C   0  0  0  0  0  0  0  0  0  0  0  0
    8.6223    0.6225   -0.2458 C   0  0  0  0  0  0  0  0  0  0  0  0
    9.0278    1.9530   -0.4472 C   0  0  0  0  0  0  0  0  0  0  0  0
    4.8667    1.0074   -0.1937 C   0  0  0  0  0  0  0  0  0  0  0  0
    4.3606    0.2473    1.0327 C   0  0  0  0  0  0  0  0  0  0  0  0
    9.5907   -0.3785   -0.0908 C   0  0  0  0  0  0  0  0  0  0  0  0
   10.3927    2.2683   -0.4536 C   0  0  0  0  0  0  0  0  0  0  0  0
   10.9476   -0.0562   -0.1086 C   0  0  0  0  0  0  0  0  0  0  0  0
   11.3481    1.2659   -0.2876 C   0  0  0  0  0  0  0  0  0  0  0  0
    2.9267   -0.1868    0.8619 C   0  0  0  0  0  0  0  0  0  0  0  0
    1.8906    0.6516    1.2731 C   0  0  0  0  0  0  0  0  0  0  0  0
    2.6364   -1.4267    0.2927 C   0  0  0  0  0  0  0  0  0  0  0  0
    0.5641    0.2500    1.1151 C   0  0  0  0  0  0  0  0  0  0  0  0
    1.3099   -1.8284    0.1348 C   0  0  0  0  0  0  0  0  0  0  0  0
    0.2737   -0.9899    0.5459 C   0  0  0  0  0  0  0  0  0  0  0  0
   11.3790   -2.3708    0.2271 C   0  0  0  0  0  0  0  0  0  0  0  0
   13.2689    1.9282    0.9484 C   0  0  0  0  0  0  0  0  0  0  0  0
   -1.5324   -2.5904   -0.1562 C   0  0  0  0  0  0  0  0  0  0  0  0
   -3.0112   -2.7415   -0.1611 C   0  0  0  0  0  0  0  0  0  0  0  0
   -3.8275   -1.6109   -0.1958 C   0  0  0  0  0  0  0  0  0  0  0  0
   -3.5826   -4.0136   -0.1302 C   0  0  0  0  0  0  0  0  0  0  0  0
   -5.2151   -1.7525   -0.1994 C   0  0  0  0  0  0  0  0  0  0  0  0
   -4.9702   -4.1550   -0.1339 C   0  0  0  0  0  0  0  0  0  0  0  0
   -5.7865   -3.0246   -0.1684 C   0  0  0  0  0  0  0  0  0  0  0  0
   -8.0177    0.7974   -0.2551 C   0  0  0  0  0  0  0  0  0  0  0  0
   -7.4318   -0.5688   -0.2435 C   0  0  0  0  0  0  0  0  0  0  0  0
   -9.8077    2.3415    0.2512 C   0  0  0  0  0  0  0  0  0  0  0  0
   -9.2761    1.0451    0.2741 C   0  0  0  0  0  0  0  0  0  0  0  0
   -9.0280    3.3689   -0.3201 C   0  0  0  0  0  0  0  0  0  0  0  0
   -7.3300    1.8661   -0.7929 C   0  0  0  0  0  0  0  0  0  0  0  0
  -11.0789    2.6252    0.7785 C   0  0  0  0  0  0  0  0  0  0  0  0
   -9.5563    4.6567   -0.3420 C   0  0  0  0  0  0  0  0  0  0  0  0
  -11.5828    3.9222    0.7431 C   0  0  0  0  0  0  0  0  0  0  0  0
  -10.8200    4.9390    0.1822 C   0  0  0  0  0  0  0  0  0  0  0  0
   -4.6347   -6.5086   -0.0672 C   0  0  0  0  0  0  0  0  0  0  0  0
    5.8942    3.3375   -0.8187 H   0  0  0  0  0  0  0  0  0  0  0  0
    6.5645    2.1825   -1.9762 H   0  0  0  0  0  0  0  0  0  0  0  0
    6.9960   -0.4981    0.5132 H   0  0  0  0  0  0  0  0  0  0  0  0
    6.9434   -0.2091   -1.2377 H   0  0  0  0  0  0  0  0  0  0  0  0
    7.9604    3.6019    0.3534 H   0  0  0  0  0  0  0  0  0  0  0  0
    8.3091    3.7442   -1.3785 H   0  0  0  0  0  0  0  0  0  0  0  0
    4.2385    1.9025   -0.3007 H   0  0  0  0  0  0  0  0  0  0  0  0
    4.7202    0.4257   -1.1138 H   0  0  0  0  0  0  0  0  0  0  0  0
    4.4481    0.8740    1.9303 H   0  0  0  0  0  0  0  0  0  0  0  0
    4.9651   -0.6446    1.2345 H   0  0  0  0  0  0  0  0  0  0  0  0
    9.2199   -1.3902    0.0377 H   0  0  0  0  0  0  0  0  0  0  0  0
   10.7105    3.2995   -0.5894 H   0  0  0  0  0  0  0  0  0  0  0  0
    2.1042    1.6206    1.7163 H   0  0  0  0  0  0  0  0  0  0  0  0
    3.4361   -2.0869   -0.0330 H   0  0  0  0  0  0  0  0  0  0  0  0
   -0.2331    0.9141    1.4397 H   0  0  0  0  0  0  0  0  0  0  0  0
    1.1674   -2.8012   -0.3139 H   0  0  0  0  0  0  0  0  0  0  0  0
   10.7923   -2.4639    1.1474 H   0  0  0  0  0  0  0  0  0  0  0  0
   10.8315   -2.7198   -0.6551 H   0  0  0  0  0  0  0  0  0  0  0  0
   12.2496   -3.0254    0.3390 H   0  0  0  0  0  0  0  0  0  0  0  0
   14.3238    2.1566    0.7734 H   0  0  0  0  0  0  0  0  0  0  0  0
   13.2040    1.0862    1.6449 H   0  0  0  0  0  0  0  0  0  0  0  0
   12.7865    2.8111    1.3799 H   0  0  0  0  0  0  0  0  0  0  0  0
   -1.7270   -0.7315    0.7647 H   0  0  0  0  0  0  0  0  0  0  0  0
   -3.4139   -0.6083   -0.2606 H   0  0  0  0  0  0  0  0  0  0  0  0
   -2.9086   -4.8627   -0.0961 H   0  0  0  0  0  0  0  0  0  0  0  0
   -6.8515   -3.2102   -0.1690 H   0  0  0  0  0  0  0  0  0  0  0  0
   -5.5210    0.2563   -0.2147 H   0  0  0  0  0  0  0  0  0  0  0  0
   -9.8538    0.2340    0.7131 H   0  0  0  0  0  0  0  0  0  0  0  0
   -6.3561    1.7667   -1.2602 H   0  0  0  0  0  0  0  0  0  0  0  0
  -11.6843    1.8366    1.2202 H   0  0  0  0  0  0  0  0  0  0  0  0
   -8.9788    5.4710   -0.7760 H   0  0  0  0  0  0  0  0  0  0  0  0
  -12.5654    4.1376    1.1514 H   0  0  0  0  0  0  0  0  0  0  0  0
  -11.2052    5.9540    0.1505 H   0  0  0  0  0  0  0  0  0  0  0  0
   -4.0194   -6.5606   -0.9719 H   0  0  0  0  0  0  0  0  0  0  0  0
   -4.0320   -6.5123    0.8475 H   0  0  0  0  0  0  0  0  0  0  0  0
   -5.2490   -7.4147   -0.0474 H   0  0  0  0  0  0  0  0  0  0  0  0
  1 19  1  0  0  0  0
  1 27  1  0  0  0  0
  2 20  1  0  0  0  0
  2 28  1  0  0  0  0
  3 29  2  0  0  0  0
  4 34  1  0  0  0  0
  4 46  1  0  0  0  0
  5 37  2  0  0  0  0
  6 10  1  0  0  0  0
  6 11  1  0  0  0  0
  6 15  1  0  0  0  0
  7 26  1  0  0  0  0
  7 29  1  0  0  0  0
  7 69  1  0  0  0  0
  8 33  1  0  0  0  0
  8 37  1  0  0  0  0
  8 73  1  0  0  0  0
  9 40  1  0  0  0  0
  9 41  2  0  0  0  0
 10 12  1  0  0  0  0
 10 47  1  0  0  0  0
 10 48  1  0  0  0  0
 11 13  1  0  0  0  0
 11 49  1  0  0  0  0
 11 50  1  0  0  0  0
 12 14  1  0  0  0  0
 12 51  1  0  0  0  0
 12 52  1  0  0  0  0
 13 14  1  0  0  0  0
 13 17  2  0  0  0  0
 14 18  2  0  0  0  0
 15 16  1  0  0  0  0
 15 53  1  0  0  0  0
 15 54  1  0  0  0  0
 16 21  1  0  0  0  0
 16 55  1  0  0  0  0
 16 56  1  0  0  0  0
 17 19  1  0  0  0  0
 17 57  1  0  0  0  0
 18 20  1  0  0  0  0
 18 58  1  0  0  0  0
 19 20  2  0  0  0  0
 21 22  2  0  0  0  0
 21 23  1  0  0  0  0
 22 24  1  0  0  0  0
 22 59  1  0  0  0  0
 23 25  2  0  0  0  0
 23 60  1  0  0  0  0
 24 26  2  0  0  0  0
 24 61  1  0  0  0  0
 25 26  1  0  0  0  0
 25 62  1  0  0  0  0
 27 63  1  0  0  0  0
 27 64  1  0  0  0  0
 27 65  1  0  0  0  0
 28 66  1  0  0  0  0
 28 67  1  0  0  0  0
 28 68  1  0  0  0  0
 29 30  1  0  0  0  0
 30 31  2  0  0  0  0
 30 32  1  0  0  0  0
 31 33  1  0  0  0  0
 31 70  1  0  0  0  0
 32 34  2  0  0  0  0
 32 71  1  0  0  0  0
 33 35  2  0  0  0  0
 34 35  1  0  0  0  0
 35 72  1  0  0  0  0
 36 37  1  0  0  0  0
 36 39  2  0  0  0  0
 36 41  1  0  0  0  0
 38 39  1  0  0  0  0
 38 40  1  0  0  0  0
 38 42  2  0  0  0  0
 39 74  1  0  0  0  0
 40 43  2  0  0  0  0
 41 75  1  0  0  0  0
 42 44  1  0  0  0  0
 42 76  1  0  0  0  0
 43 45  1  0  0  0  0
 43 77  1  0  0  0  0
 44 45  2  0  0  0  0
 44 78  1  0  0  0  0
 45 79  1  0  0  0  0
 46 80  1  0  0  0  0
 46 81  1  0  0  0  0
 46 82  1  0  0  0  0
M  END
> <PUBCHEM_COMPOUND_CID>
25223299

> <PUBCHEM_CONFORMER_RMSD>
1.2

> <PUBCHEM_CONFORMER_DIVERSEORDER>
12
151
104
231
165
201
45
93
88
20
15
227
229
154
86
27
234
186
241
173
79
97
52
94
124
90
208
51
72
180
157
159
233
26
162
200
187
172
222
210
46
215
56
87
225
40
29
57
148
224
184
243
65
205
167
102
221
182
123
84
178
226
218
53
198
140
83
116
47
66
55
77
166
8
164
202
220
115
156
174
155
2
211
33
70
121
80
232
127
189
239
69
242
193
194
191
76
145
204
22
170
119
192
203
48
112
130
185
150
75
64
181
219
11
36
144
28
30
1
118
101
235
85
138
49
10
96
240
207
149
238
82
114
111
16
128
89
35
230
71
31
237
39
67
4
129
190
58
197
107
199
183
59
175
81
25
171
195
216
103
38
106
179
177
61
63
209
13
92
142
228
122
143
217
54
188
152
139
196
110
99
95
5
206
14
214
68
43
236
158
74
132
60
131
120
146
18
141
42
32
91
125
100
147
163
109
17
73
24
105
7
134
160
137
41
62
113
78
34
176
161
213
44
136
126
133
169
37
9
223
108
3
23
168
117
6
135
19
212
98
21
153
50

> <PUBCHEM_MMFF94_PARTIAL_CHARGES>
62
1 -0.36
10 0.27
11 0.41
12 0.14
13 -0.14
14 -0.14
15 0.27
16 0.14
17 -0.15
18 -0.15
19 0.08
2 -0.36
20 0.08
21 -0.14
22 -0.15
23 -0.15
24 -0.15
25 -0.15
26 0.12
27 0.28
28 0.28
29 0.54
3 -0.57
30 0.09
31 -0.15
32 -0.15
33 0.12
34 0.08
35 -0.15
36 0.09
37 0.54
39 -0.15
4 -0.36
40 0.31
41 0.16
42 -0.15
43 -0.15
44 -0.15
45 -0.15
46 0.28
5 -0.57
57 0.15
58 0.15
59 0.15
6 -0.81
60 0.15
61 0.15
62 0.15
69 0.37
7 -0.55
70 0.15
71 0.15
72 0.15
73 0.37
74 0.15
75 0.15
76 0.15
77 0.15
78 0.15
79 0.15
8 -0.55
9 -0.62

> <PUBCHEM_EFFECTIVE_ROTOR_COUNT>
12.8

> <PUBCHEM_PHARMACOPHORE_FEATURES>
15
1 1 acceptor
1 2 acceptor
1 3 acceptor
1 4 acceptor
1 5 acceptor
1 6 cation
1 7 donor
1 8 donor
1 9 acceptor
6 13 14 17 18 19 20 rings
6 21 22 23 24 25 26 rings
6 30 31 32 33 34 35 rings
6 38 40 42 43 44 45 rings
6 6 10 11 12 13 14 rings
6 9 36 38 39 40 41 rings

> <PUBCHEM_HEAVY_ATOM_COUNT>
46

> <PUBCHEM_ATOM_DEF_STEREO_COUNT>
0

> <PUBCHEM_ATOM_UDEF_STEREO_COUNT>
0

> <PUBCHEM_BOND_DEF_STEREO_COUNT>
0

> <PUBCHEM_BOND_UDEF_STEREO_COUNT>
0

> <PUBCHEM_ISOTOPIC_ATOM_COUNT>
0

> <PUBCHEM_COMPONENT_COUNT>
1

> <PUBCHEM_CACTVS_TAUTO_COUNT>
4

> <PUBCHEM_CONFORMER_ID>
0180E0830000000C

> <PUBCHEM_MMFF94_ENERGY>
174.5865

> <PUBCHEM_FEATURE_SELFOVERLAP>
76.185

> <PUBCHEM_SHAPE_FINGERPRINT>
10190206 1 17846505807826751697
10917259 69 18410572885693025777
10952577 141 18343301436808257821
11181472 205 18261106370867925634
11421887 21 17987801796845560697
12559415 86 18409738344320944342
131240 88 18334301955114161281
13165054 146 18342182155129923225
14201967 126 18335701607884750485
15065858 18 18059859528553867938
15152005 290 18411136927680898551
15455200 90 18337404772690813892
15538507 64 18411982446709599668
15890870 6 18340485574808327081
21057499 1 18194683658819179723
21133410 127 18045774591228796597
21362267 313 18409162200808622002
2835820 33 8718825392743861704
3986486 107 17632854223113563249
4173938 188 8862943871054927812
57303763 176 18408039607773324448

> <PUBCHEM_SHAPE_MULTIPOLES>
897.39
59.56
7.11
0.86
85.24
5.93
-0.11
-67.85
0.7
-26.06
0.72
0.25
-0.3
-1.88

> <PUBCHEM_SHAPE_SELFOVERLAP>
1967.02

> <PUBCHEM_SHAPE_VOLUME>
483.5

> <PUBCHEM_COORDINATE_TYPE>
2
5
10

$$$$