24807981
  -OEChem-03242010103D

 55 57  0     0  0  0  0  0  0999 V2000
    1.6469   -0.1291   -1.4125 O   0  0  0  0  0  0  0  0  0  0  0  0
    1.6153    3.1239    0.0490 O   0  0  0  0  0  0  0  0  0  0  0  0
    4.2352    0.3432   -0.5585 O   0  0  0  0  0  0  0  0  0  0  0  0
   -0.8282   -1.3362    0.2110 N   0  0  0  0  0  0  0  0  0  0  0  0
   -2.5985    0.0018    2.0759 C   0  0  0  0  0  0  0  0  0  0  0  0
   -3.1036   -0.7465    0.8664 C   0  0  0  0  0  0  0  0  0  0  0  0
   -2.6200    1.5326    1.8952 C   0  0  0  0  0  0  0  0  0  0  0  0
   -2.2223   -1.3781   -0.0109 C   0  0  0  0  0  0  0  0  0  0  0  0
   -1.8020    2.0209    0.7479 C   0  0  0  0  0  0  0  0  0  0  0  0
    0.0782   -2.2733   -0.3748 C   0  0  0  0  0  0  0  0  0  0  0  0
   -4.4778   -0.8000    0.6330 C   0  0  0  0  0  0  0  0  0  0  0  0
    1.4862   -1.9957    0.0736 C   0  0  0  0  0  0  0  0  0  0  0  0
   -2.7151   -2.0629   -1.1218 C   0  0  0  0  0  0  0  0  0  0  0  0
   -4.9707   -1.4848   -0.4776 C   0  0  0  0  0  0  0  0  0  0  0  0
   -0.4596    2.3486    0.9377 C   0  0  0  0  0  0  0  0  0  0  0  0
   -4.0892   -2.1163   -1.3551 C   0  0  0  0  0  0  0  0  0  0  0  0
   -2.3796    2.1498   -0.5151 C   0  0  0  0  0  0  0  0  0  0  0  0
    2.2109   -0.9333   -0.4666 C   0  0  0  0  0  0  0  0  0  0  0  0
    2.0668   -2.8151    1.0416 C   0  0  0  0  0  0  0  0  0  0  0  0
    0.3053    2.8050   -0.1358 C   0  0  0  0  0  0  0  0  0  0  0  0
    3.5161   -0.6903   -0.0387 C   0  0  0  0  0  0  0  0  0  0  0  0
   -1.6148    2.6063   -1.5886 C   0  0  0  0  0  0  0  0  0  0  0  0
   -0.2723    2.9338   -1.3988 C   0  0  0  0  0  0  0  0  0  0  0  0
    3.3720   -2.5723    1.4694 C   0  0  0  0  0  0  0  0  0  0  0  0
    4.0966   -1.5099    0.9292 C   0  0  0  0  0  0  0  0  0  0  0  0
    1.8202   -0.5129   -2.7746 C   0  0  0  0  0  0  0  0  0  0  0  0
    5.5619    0.5219   -0.0663 C   0  0  0  0  0  0  0  0  0  0  0  0
    2.1422    2.9688    1.3659 C   0  0  0  0  0  0  0  0  0  0  0  0
   -1.6069   -0.3315    2.3972 H   0  0  0  0  0  0  0  0  0  0  0  0
   -3.2487   -0.2503    2.9254 H   0  0  0  0  0  0  0  0  0  0  0  0
   -3.6560    1.8770    1.7734 H   0  0  0  0  0  0  0  0  0  0  0  0
   -2.2732    2.0026    2.8249 H   0  0  0  0  0  0  0  0  0  0  0  0
   -0.2030   -3.2962   -0.0928 H   0  0  0  0  0  0  0  0  0  0  0  0
    0.0467   -2.2396   -1.4687 H   0  0  0  0  0  0  0  0  0  0  0  0
   -0.4645   -0.6521    0.8616 H   0  0  0  0  0  0  0  0  0  0  0  0
   -5.1757   -0.3120    1.3083 H   0  0  0  0  0  0  0  0  0  0  0  0
   -2.0669   -2.5638   -1.8337 H   0  0  0  0  0  0  0  0  0  0  0  0
   -6.0406   -1.5258   -0.6598 H   0  0  0  0  0  0  0  0  0  0  0  0
   -0.0608    2.2255    1.9392 H   0  0  0  0  0  0  0  0  0  0  0  0
   -4.4735   -2.6481   -2.2206 H   0  0  0  0  0  0  0  0  0  0  0  0
   -3.4261    1.9076   -0.6787 H   0  0  0  0  0  0  0  0  0  0  0  0
    1.5145   -3.6453    1.4740 H   0  0  0  0  0  0  0  0  0  0  0  0
   -2.0648    2.7075   -2.5718 H   0  0  0  0  0  0  0  0  0  0  0  0
    0.3190    3.2873   -2.2390 H   0  0  0  0  0  0  0  0  0  0  0  0
    3.8229   -3.2107    2.2238 H   0  0  0  0  0  0  0  0  0  0  0  0
    5.1041   -1.3814    1.3094 H   0  0  0  0  0  0  0  0  0  0  0  0
    2.7955   -0.1671   -3.1302 H   0  0  0  0  0  0  0  0  0  0  0  0
    1.7445   -1.5965   -2.9105 H   0  0  0  0  0  0  0  0  0  0  0  0
    1.0401   -0.0288   -3.3685 H   0  0  0  0  0  0  0  0  0  0  0  0
    5.5666    0.7621    1.0024 H   0  0  0  0  0  0  0  0  0  0  0  0
    6.2000   -0.3359   -0.3045 H   0  0  0  0  0  0  0  0  0  0  0  0
    5.9848    1.3870   -0.5878 H   0  0  0  0  0  0  0  0  0  0  0  0
    3.1962    3.2631    1.3284 H   0  0  0  0  0  0  0  0  0  0  0  0
    2.1154    1.9228    1.6899 H   0  0  0  0  0  0  0  0  0  0  0  0
    1.6480    3.6378    2.0785 H   0  0  0  0  0  0  0  0  0  0  0  0
  1 18  1  0  0  0  0
  1 26  1  0  0  0  0
  2 20  1  0  0  0  0
  2 28  1  0  0  0  0
  3 21  1  0  0  0  0
  3 27  1  0  0  0  0
  4  8  1  0  0  0  0
  4 10  1  0  0  0  0
  4 35  1  0  0  0  0
  5  6  1  0  0  0  0
  5  7  1  0  0  0  0
  5 29  1  0  0  0  0
  5 30  1  0  0  0  0
  6  8  1  0  0  0  0
  6 11  2  0  0  0  0
  7  9  1  0  0  0  0
  7 31  1  0  0  0  0
  7 32  1  0  0  0  0
  8 13  2  0  0  0  0
  9 15  2  0  0  0  0
  9 17  1  0  0  0  0
 10 12  1  0  0  0  0
 10 33  1  0  0  0  0
 10 34  1  0  0  0  0
 11 14  1  0  0  0  0
 11 36  1  0  0  0  0
 12 18  2  0  0  0  0
 12 19  1  0  0  0  0
 13 16  1  0  0  0  0
 13 37  1  0  0  0  0
 14 16  2  0  0  0  0
 14 38  1  0  0  0  0
 15 20  1  0  0  0  0
 15 39  1  0  0  0  0
 16 40  1  0  0  0  0
 17 22  2  0  0  0  0
 17 41  1  0  0  0  0
 18 21  1  0  0  0  0
 19 24  2  0  0  0  0
 19 42  1  0  0  0  0
 20 23  2  0  0  0  0
 21 25  2  0  0  0  0
 22 23  1  0  0  0  0
 22 43  1  0  0  0  0
 23 44  1  0  0  0  0
 24 25  1  0  0  0  0
 24 45  1  0  0  0  0
 25 46  1  0  0  0  0
 26 47  1  0  0  0  0
 26 48  1  0  0  0  0
 26 49  1  0  0  0  0
 27 50  1  0  0  0  0
 27 51  1  0  0  0  0
 27 52  1  0  0  0  0
 28 53  1  0  0  0  0
 28 54  1  0  0  0  0
 28 55  1  0  0  0  0
M  END
> <PUBCHEM_COMPOUND_CID>
24807981

> <PUBCHEM_CONFORMER_RMSD>
1.2

> <PUBCHEM_CONFORMER_DIVERSEORDER>
2
90
106
141
133
155
182
119
103
44
172
118
61
101
83
169
29
58
40
25
45
168
190
138
5
74
149
179
174
171
164
139
146
125
113
22
86
60
147
72
31
13
111
65
8
176
49
84
128
143
187
57
127
134
126
115
88
100
135
160
7
71
34
120
188
36
55
50
185
77
97
157
47
180
14
46
48
163
70
152
41
114
98
112
56
32
184
39
104
95
30
159
154
150
140
170
79
37
75
148
166
108
151
132
24
16
53
137
64
52
96
186
18
122
63
20
173
91
144
92
175
26
142
66
162
191
116
21
109
59
181
68
82
89
165
161
167
38
124
85
158
189
87
94
10
23
69
43
145
153
42
99
193
73
51
105
121
192
12
15
17
28
130
177
76
183
117
62
11
3
102
6
80
123
93
33
156
131
129
178
136
78
67
110
27
9
35
1
54
107
19
81
4

> <PUBCHEM_MMFF94_PARTIAL_CHARGES>
40
1 -0.36
10 0.51
11 -0.15
12 -0.14
13 -0.15
14 -0.15
15 -0.15
16 -0.15
17 -0.15
18 0.08
19 -0.15
2 -0.36
20 0.08
21 0.08
22 -0.15
23 -0.15
24 -0.15
25 -0.15
26 0.28
27 0.28
28 0.28
3 -0.36
35 0.4
36 0.15
37 0.15
38 0.15
39 0.15
4 -0.87
40 0.15
41 0.15
42 0.15
43 0.15
44 0.15
45 0.15
46 0.15
5 0.14
6 -0.14
7 0.14
8 0.1
9 -0.14

> <PUBCHEM_EFFECTIVE_ROTOR_COUNT>
9

> <PUBCHEM_PHARMACOPHORE_FEATURES>
8
1 1 acceptor
1 2 acceptor
1 3 acceptor
1 4 cation
1 4 donor
6 12 18 19 21 24 25 rings
6 6 8 11 13 14 16 rings
6 9 15 17 20 22 23 rings

> <PUBCHEM_HEAVY_ATOM_COUNT>
28

> <PUBCHEM_ATOM_DEF_STEREO_COUNT>
0

> <PUBCHEM_ATOM_UDEF_STEREO_COUNT>
0

> <PUBCHEM_BOND_DEF_STEREO_COUNT>
0

> <PUBCHEM_BOND_UDEF_STEREO_COUNT>
0

> <PUBCHEM_ISOTOPIC_ATOM_COUNT>
0

> <PUBCHEM_COMPONENT_COUNT>
1

> <PUBCHEM_CACTVS_TAUTO_COUNT>
1

> <PUBCHEM_CONFORMER_ID>
017A8A2D00000002

> <PUBCHEM_MMFF94_ENERGY>
114.9675

> <PUBCHEM_FEATURE_SELFOVERLAP>
40.601

> <PUBCHEM_SHAPE_FINGERPRINT>
10032420 55 18260541230375740232
10670039 82 18335151865049742358
10871710 139 18410300181297677995
1100329 8 18121499317773029170
11045515 52 18261663827579430079
11370993 70 17179671564250100596
11479125 193 15723637141186172108
11578080 2 18115009862364434453
11595378 159 18411420579288572086
12156800 1 16447799430211369661
12166972 35 17967534605208288295
12553582 1 18191332466411748091
12633257 1 18199752431920640360
13140716 1 18121791791654693419
133893 2 18121234314006259937
14142880 1 17984702217341050553
14251757 17 18044625742736191501
14787075 74 18338525239490237548
14840074 17 18340497732947936963
17357779 13 18339067268293807365
19026451 147 18056475282264451423
20691752 17 18262233451347156913
20715895 44 17538275143124885973
20764821 26 18337660945308372504
20905425 154 17912649299894838181
23419403 2 17899661730971483966
23557571 272 17775293733181579175
35225 105 17832995940113675646
392239 28 18413108343086385776
463206 1 18126007311046156363
469060 322 18113622295954075500
9925002 15 17200210836747039087

> <PUBCHEM_SHAPE_MULTIPOLES>
553.64
8.66
4.28
1.88
2.69
2.38
-0.38
-4.53
0.64
0.1
0.09
-0.27
0.22
-1.1

> <PUBCHEM_SHAPE_SELFOVERLAP>
1181.953

> <PUBCHEM_SHAPE_VOLUME>
307.3

> <PUBCHEM_COORDINATE_TYPE>
2
5
10

$$$$