4932
  -OEChem-03242010103D

 52 53  0     1  0  0  0  0  0999 V2000
    3.0142   -0.0693    0.3275 O   0  0  0  0  0  0  0  0  0  0  0  0
    4.7310    2.0675    0.7942 O   0  0  0  0  0  0  0  0  0  0  0  0
    0.6801   -0.1078    1.6262 O   0  0  0  0  0  0  0  0  0  0  0  0
    1.3915    2.9365   -0.5482 N   0  0  0  0  0  0  0  0  0  0  0  0
    3.7209    2.1606   -0.2145 C   0  0  2  0  0  0  0  0  0  0  0  0
    2.4915    2.8331    0.4009 C   0  0  0  0  0  0  0  0  0  0  0  0
    3.4388    0.7589   -0.7507 C   0  0  0  0  0  0  0  0  0  0  0  0
    0.2168    3.5280    0.0781 C   0  0  0  0  0  0  0  0  0  0  0  0
   -1.0914   -1.2845    0.4917 C   0  0  0  0  0  0  0  0  0  0  0  0
   -1.9549   -0.0229    0.5605 C   0  0  0  0  0  0  0  0  0  0  0  0
   -0.9297    3.6190   -0.9258 C   0  0  0  0  0  0  0  0  0  0  0  0
    1.4237   -1.8713    0.2598 C   0  0  0  0  0  0  0  0  0  0  0  0
    2.7020   -1.3667    0.0207 C   0  0  0  0  0  0  0  0  0  0  0  0
    0.3857   -1.0323    0.8425 C   0  0  0  0  0  0  0  0  0  0  0  0
   -3.3937   -0.3132    0.2195 C   0  0  0  0  0  0  0  0  0  0  0  0
    1.1254   -3.1956   -0.0612 C   0  0  0  0  0  0  0  0  0  0  0  0
    3.6819   -2.1866   -0.5393 C   0  0  0  0  0  0  0  0  0  0  0  0
   -2.1630    4.2536   -0.3018 C   0  0  0  0  0  0  0  0  0  0  0  0
    2.1053   -4.0151   -0.6214 C   0  0  0  0  0  0  0  0  0  0  0  0
   -3.8283   -0.2264   -1.1032 C   0  0  0  0  0  0  0  0  0  0  0  0
   -4.2911   -0.6695    1.2263 C   0  0  0  0  0  0  0  0  0  0  0  0
    3.3834   -3.5107   -0.8605 C   0  0  0  0  0  0  0  0  0  0  0  0
   -5.1600   -0.4954   -1.4191 C   0  0  0  0  0  0  0  0  0  0  0  0
   -5.6229   -0.9386    0.9103 C   0  0  0  0  0  0  0  0  0  0  0  0
   -6.0572   -0.8515   -0.4124 C   0  0  0  0  0  0  0  0  0  0  0  0
    4.1157    2.7883   -1.0223 H   0  0  0  0  0  0  0  0  0  0  0  0
    2.1816    2.2734    1.2925 H   0  0  0  0  0  0  0  0  0  0  0  0
    2.7816    3.8295    0.7595 H   0  0  0  0  0  0  0  0  0  0  0  0
    4.3669    0.3615   -1.1772 H   0  0  0  0  0  0  0  0  0  0  0  0
    2.6748    0.7770   -1.5365 H   0  0  0  0  0  0  0  0  0  0  0  0
    1.6789    3.4961   -1.3504 H   0  0  0  0  0  0  0  0  0  0  0  0
   -0.1028    2.9162    0.9304 H   0  0  0  0  0  0  0  0  0  0  0  0
    0.4526    4.5311    0.4541 H   0  0  0  0  0  0  0  0  0  0  0  0
   -1.1496   -1.6944   -0.5238 H   0  0  0  0  0  0  0  0  0  0  0  0
   -1.4702   -2.0427    1.1877 H   0  0  0  0  0  0  0  0  0  0  0  0
   -1.5558    0.7334   -0.1231 H   0  0  0  0  0  0  0  0  0  0  0  0
   -1.8984    0.4268    1.5601 H   0  0  0  0  0  0  0  0  0  0  0  0
   -0.6227    4.2240   -1.7880 H   0  0  0  0  0  0  0  0  0  0  0  0
   -1.1853    2.6261   -1.3109 H   0  0  0  0  0  0  0  0  0  0  0  0
    0.1449   -3.6234    0.1274 H   0  0  0  0  0  0  0  0  0  0  0  0
    5.5180    1.6692    0.3845 H   0  0  0  0  0  0  0  0  0  0  0  0
    4.6890   -1.8197   -0.7157 H   0  0  0  0  0  0  0  0  0  0  0  0
   -2.9700    4.3171   -1.0385 H   0  0  0  0  0  0  0  0  0  0  0  0
   -1.9474    5.2660    0.0542 H   0  0  0  0  0  0  0  0  0  0  0  0
   -2.5227    3.6596    0.5446 H   0  0  0  0  0  0  0  0  0  0  0  0
   -3.1381    0.0490   -1.8963 H   0  0  0  0  0  0  0  0  0  0  0  0
   -3.9640   -0.7424    2.2601 H   0  0  0  0  0  0  0  0  0  0  0  0
    1.8747   -5.0477   -0.8672 H   0  0  0  0  0  0  0  0  0  0  0  0
    4.1477   -4.1506   -1.2918 H   0  0  0  0  0  0  0  0  0  0  0  0
   -5.4981   -0.4280   -2.4489 H   0  0  0  0  0  0  0  0  0  0  0  0
   -6.3216   -1.2165    1.6940 H   0  0  0  0  0  0  0  0  0  0  0  0
   -7.0941   -1.0612   -0.6584 H   0  0  0  0  0  0  0  0  0  0  0  0
  1  7  1  0  0  0  0
  1 13  1  0  0  0  0
  2  5  1  0  0  0  0
  2 41  1  0  0  0  0
  3 14  2  0  0  0  0
  4  6  1  0  0  0  0
  4  8  1  0  0  0  0
  4 31  1  0  0  0  0
  5  6  1  0  0  0  0
  5  7  1  0  0  0  0
  5 26  1  0  0  0  0
  6 27  1  0  0  0  0
  6 28  1  0  0  0  0
  7 29  1  0  0  0  0
  7 30  1  0  0  0  0
  8 11  1  0  0  0  0
  8 32  1  0  0  0  0
  8 33  1  0  0  0  0
  9 10  1  0  0  0  0
  9 14  1  0  0  0  0
  9 34  1  0  0  0  0
  9 35  1  0  0  0  0
 10 15  1  0  0  0  0
 10 36  1  0  0  0  0
 10 37  1  0  0  0  0
 11 18  1  0  0  0  0
 11 38  1  0  0  0  0
 11 39  1  0  0  0  0
 12 13  1  0  0  0  0
 12 14  1  0  0  0  0
 12 16  2  0  0  0  0
 13 17  2  0  0  0  0
 15 20  2  0  0  0  0
 15 21  1  0  0  0  0
 16 19  1  0  0  0  0
 16 40  1  0  0  0  0
 17 22  1  0  0  0  0
 17 42  1  0  0  0  0
 18 43  1  0  0  0  0
 18 44  1  0  0  0  0
 18 45  1  0  0  0  0
 19 22  2  0  0  0  0
 19 48  1  0  0  0  0
 20 23  1  0  0  0  0
 20 46  1  0  0  0  0
 21 24  2  0  0  0  0
 21 47  1  0  0  0  0
 22 49  1  0  0  0  0
 23 25  2  0  0  0  0
 23 50  1  0  0  0  0
 24 25  1  0  0  0  0
 24 51  1  0  0  0  0
 25 52  1  0  0  0  0
M  END
> <PUBCHEM_COMPOUND_CID>
4932

> <PUBCHEM_CONFORMER_RMSD>
1

> <PUBCHEM_CONFORMER_DIVERSEORDER>
1
202
90
151
97
195
15
68
103
21
179
79
203
175
211
86
154
69
62
13
124
168
152
182
185
117
198
158
180
148
36
30
170
178
94
66
130
213
40
93
33
215
197
7
42
99
128
116
22
129
39
16
153
172
26
207
114
35
100
162
63
61
194
81
118
111
160
89
32
27
44
113
134
123
146
199
53
133
205
104
75
37
11
87
122
155
166
135
163
161
92
186
190
184
143
126
38
24
59
200
95
110
41
208
171
12
52
219
147
51
127
159
112
109
125
188
91
54
98
187
25
138
183
209
5
201
88
31
73
46
64
150
196
142
204
71
121
164
74
167
120
156
45
20
206
169
17
29
60
55
50
136
218
193
56
220
165
217
212
101
14
8
9
132
189
192
83
144
4
85
72
140
10
57
47
80
102
173
174
18
76
19
96
177
48
214
28
70
131
65
82
107
119
149
105
176
77
34
157
106
210
6
49
78
191
139
67
43
108
181
3
137
2
216
84
115
141
23
58
145

> <PUBCHEM_MMFF94_PARTIAL_CHARGES>
34
1 -0.36
10 0.14
12 0.09
13 0.08
14 0.42
15 -0.14
16 -0.15
17 -0.15
19 -0.15
2 -0.68
20 -0.15
21 -0.15
22 -0.15
23 -0.15
24 -0.15
25 -0.15
3 -0.57
31 0.36
4 -0.9
40 0.15
41 0.4
42 0.15
46 0.15
47 0.15
48 0.15
49 0.15
5 0.28
50 0.15
51 0.15
52 0.15
6 0.27
7 0.28
8 0.27
9 0.06

> <PUBCHEM_EFFECTIVE_ROTOR_COUNT>
11

> <PUBCHEM_PHARMACOPHORE_FEATURES>
9
1 1 acceptor
1 18 hydrophobe
1 2 acceptor
1 2 donor
1 3 acceptor
1 4 cation
1 4 donor
6 12 13 16 17 19 22 rings
6 15 20 21 23 24 25 rings

> <PUBCHEM_HEAVY_ATOM_COUNT>
25

> <PUBCHEM_ATOM_DEF_STEREO_COUNT>
0

> <PUBCHEM_ATOM_UDEF_STEREO_COUNT>
1

> <PUBCHEM_BOND_DEF_STEREO_COUNT>
0

> <PUBCHEM_BOND_UDEF_STEREO_COUNT>
0

> <PUBCHEM_ISOTOPIC_ATOM_COUNT>
0

> <PUBCHEM_COMPONENT_COUNT>
1

> <PUBCHEM_CACTVS_TAUTO_COUNT>
2

> <PUBCHEM_CONFORMER_ID>
0000134400000001

> <PUBCHEM_MMFF94_ENERGY>
57.416

> <PUBCHEM_FEATURE_SELFOVERLAP>
45.682

> <PUBCHEM_SHAPE_FINGERPRINT>
11513181 2 18271806774710335197
11578080 2 17485618512946232456
12730499 353 18338527442075588243
13402501 40 18115302401087124125
1361 2 18339641273625196447
14114211 80 17832736794667350405
14681490 219 18410008845266427813
15081414 286 18335990843228242901
15483637 11 18193276282695377757
16728300 4 17680674135662908800
17844677 252 18340774741533361971
17909252 39 18340210678798055390
1813 80 18129113229605546527
1979834 28 18339076102667248816
19930381 70 18337392742080806125
20101258 96 18121518864169031219
20775438 99 17761169321249563621
21285901 2 17968088746405312357
22113638 7 17977101584952216420
23559900 14 18411139138534722995
3014063 31 18408321081763929213
3060560 45 18341054124618094542
3737641 26 18412830157432176821
4144715 1 18334307453257388569
474 4 18339924942902713251
5281201 14 18337392634717628063

> <PUBCHEM_SHAPE_MULTIPOLES>
491.9
10.91
5.64
1.14
13.14
3.8
-0.02
-3.77
1.1
-5.01
1.28
0.74
-0.14
1.25

> <PUBCHEM_SHAPE_SELFOVERLAP>
1012.031

> <PUBCHEM_SHAPE_VOLUME>
282.3

> <PUBCHEM_COORDINATE_TYPE>
2
5
10

$$$$