3
 OpenBabel03292022243D

100104  0  0  1  0  0  0  0  0999 V2000
   10.5465   -1.4938    0.1718 C   0  0  0  0  0  0  0  0  0  0  0  0
    9.6065   -2.5631    0.1500 O   0  0  0  0  0  0  0  0  0  0  0  0
    8.5602   -2.4305   -0.7217 C   0  0  0  0  0  0  0  0  0  0  0  0
    8.1828   -1.2527   -1.3625 C   0  0  0  0  0  0  0  0  0  0  0  0
    7.1057   -1.2481   -2.2551 C   0  0  0  0  0  0  0  0  0  0  0  0
    6.3995   -2.4259   -2.5458 C   0  0  0  0  0  0  0  0  0  0  0  0
    5.2803   -2.3897   -3.5838 C   0  0  0  0  0  0  0  0  0  0  0  0
    5.3580   -3.5557   -4.5988 C   0  0  0  0  0  0  0  0  0  0  0  0
    6.1521   -3.6097   -5.5309 O   0  0  0  0  0  0  0  0  0  0  0  0
    4.4730   -4.5386   -4.2993 O   0  0  0  0  0  0  0  0  0  0  0  0
    4.4219   -5.7803   -5.0384 C   0  0  1  0  0  0  0  0  0  0  0  0
    5.6198   -6.6520   -4.6636 C   0  0  0  0  0  0  0  0  0  0  0  0
    5.4020   -8.1325   -4.9848 C   0  0  0  0  0  0  0  0  0  0  0  0
    4.1414   -8.7321   -4.2769 C   0  0  1  0  0  0  0  0  0  0  0  0
    4.3234   -8.7928   -2.8024 N   0  0  0  0  0  0  0  0  0  0  0  0
    5.4613   -9.6872   -2.4773 C   0  0  0  0  0  0  0  0  0  0  0  0
    3.2195   -9.0972   -1.8547 C   0  0  1  0  0  0  0  0  0  0  0  0
    2.1219   -8.0397   -1.6851 C   0  0  0  0  0  0  0  0  0  0  0  0
    1.5194   -8.1593   -0.2811 C   0  0  0  0  0  0  0  0  0  0  0  0
    1.0043   -9.5588    0.0908 C   0  0  2  0  0  0  0  0  0  0  0  0
    1.1126   -9.7691    1.5398 O   0  0  0  0  0  0  0  0  0  0  0  0
    0.3305   -9.0367    2.3825 C   0  0  0  0  0  0  0  0  0  0  0  0
   -0.4978   -8.2049    2.0457 O   0  0  0  0  0  0  0  0  0  0  0  0
    0.5804   -9.3183    3.7852 C   0  0  0  0  0  0  0  0  0  0  0  0
    0.8100   -9.5368    4.9548 C   0  0  0  0  0  0  0  0  0  0  0  0
    1.1854   -9.8212    6.3164 C   0  0  0  0  0  0  0  0  0  0  0  0
    1.8377   -8.8637    7.0871 C   0  0  0  0  0  0  0  0  0  0  0  0
    2.4045   -9.2190    8.3215 C   0  0  0  0  0  0  0  0  0  0  0  0
    3.0956   -8.2705    9.0409 O   0  0  0  0  0  0  0  0  0  0  0  0
    4.2851   -7.8668    8.3593 C   0  0  0  0  0  0  0  0  0  0  0  0
    2.2469  -10.5123    8.8552 C   0  0  0  0  0  0  0  0  0  0  0  0
    2.9397  -10.7665   10.0167 O   0  0  0  0  0  0  0  0  0  0  0  0
    2.3082  -11.5866   10.9942 C   0  0  0  0  0  0  0  0  0  0  0  0
    1.5432  -11.4670    8.0973 C   0  0  0  0  0  0  0  0  0  0  0  0
    1.4611  -12.7426    8.5933 O   0  0  0  0  0  0  0  0  0  0  0  0
    1.1153  -13.7816    7.6858 C   0  0  0  0  0  0  0  0  0  0  0  0
    1.0025  -11.1025    6.8459 C   0  0  0  0  0  0  0  0  0  0  0  0
    1.7720  -10.7312   -0.5732 C   0  0  0  0  0  0  0  0  0  0  0  0
    2.5056  -10.4593   -1.9084 C   0  0  0  0  0  0  0  0  0  0  0  0
    2.9647   -7.9167   -4.8448 C   0  0  0  0  0  0  0  0  0  0  0  0
    3.0801   -6.4091   -4.6369 C   0  0  0  0  0  0  0  0  0  0  0  0
    3.8872   -2.1725   -2.9764 C   0  0  0  0  0  0  0  0  0  0  0  0
    3.1949   -0.9691   -3.2080 C   0  0  0  0  0  0  0  0  0  0  0  0
    1.8605   -0.8372   -2.8109 C   0  0  0  0  0  0  0  0  0  0  0  0
    1.1969   -1.9035   -2.2027 C   0  0  0  0  0  0  0  0  0  0  0  0
   -0.1371   -1.7319   -1.9507 O   0  0  0  0  0  0  0  0  0  0  0  0
   -0.9097   -2.9209   -2.1163 C   0  0  0  0  0  0  0  0  0  0  0  0
    1.9069   -3.0530   -1.8697 C   0  0  0  0  0  0  0  0  0  0  0  0
    3.2433   -3.1750   -2.2357 C   0  0  0  0  0  0  0  0  0  0  0  0
    6.7548   -3.5959   -1.8580 C   0  0  0  0  0  0  0  0  0  0  0  0
    7.8223   -3.5928   -0.9522 C   0  0  0  0  0  0  0  0  0  0  0  0
   11.3414   -1.7576    0.8759 H   0  0  0  0  0  0  0  0  0  0  0  0
   10.0865   -0.5673    0.5301 H   0  0  0  0  0  0  0  0  0  0  0  0
   11.0051   -1.3515   -0.8133 H   0  0  0  0  0  0  0  0  0  0  0  0
    8.7011   -0.3157   -1.1906 H   0  0  0  0  0  0  0  0  0  0  0  0
    6.8274   -0.3095   -2.7307 H   0  0  0  0  0  0  0  0  0  0  0  0
    5.4722   -1.5130   -4.2223 H   0  0  0  0  0  0  0  0  0  0  0  0
    4.4178   -5.5667   -6.1150 H   0  0  0  0  0  0  0  0  0  0  0  0
    5.8647   -6.5228   -3.6029 H   0  0  0  0  0  0  0  0  0  0  0  0
    6.5013   -6.2919   -5.2101 H   0  0  0  0  0  0  0  0  0  0  0  0
    6.3141   -8.6883   -4.7476 H   0  0  0  0  0  0  0  0  0  0  0  0
    5.2895   -8.2425   -6.0722 H   0  0  0  0  0  0  0  0  0  0  0  0
    4.0149   -9.7598   -4.6437 H   0  0  0  0  0  0  0  0  0  0  0  0
    6.4154   -9.2542   -2.7880 H   0  0  0  0  0  0  0  0  0  0  0  0
    5.3497  -10.6740   -2.9419 H   0  0  0  0  0  0  0  0  0  0  0  0
    5.5730   -9.8423   -1.3975 H   0  0  0  0  0  0  0  0  0  0  0  0
    3.7302   -9.0780   -0.8805 H   0  0  0  0  0  0  0  0  0  0  0  0
    1.3290   -8.1594   -2.4317 H   0  0  0  0  0  0  0  0  0  0  0  0
    2.5328   -7.0335   -1.7803 H   0  0  0  0  0  0  0  0  0  0  0  0
    0.7005   -7.4350   -0.1919 H   0  0  0  0  0  0  0  0  0  0  0  0
    2.2725   -7.8390    0.4499 H   0  0  0  0  0  0  0  0  0  0  0  0
   -0.0548   -9.6418   -0.1864 H   0  0  0  0  0  0  0  0  0  0  0  0
    1.9394   -7.8448    6.7241 H   0  0  0  0  0  0  0  0  0  0  0  0
    5.0387   -8.6599    8.4036 H   0  0  0  0  0  0  0  0  0  0  0  0
    4.6819   -6.9826    8.8668 H   0  0  0  0  0  0  0  0  0  0  0  0
    4.1029   -7.5864    7.3164 H   0  0  0  0  0  0  0  0  0  0  0  0
    2.8919  -11.5010   11.9183 H   0  0  0  0  0  0  0  0  0  0  0  0
    2.3299  -12.6457   10.7253 H   0  0  0  0  0  0  0  0  0  0  0  0
    1.2902  -11.2489   11.2131 H   0  0  0  0  0  0  0  0  0  0  0  0
    1.4058  -14.7336    8.1393 H   0  0  0  0  0  0  0  0  0  0  0  0
    1.6546  -13.6974    6.7360 H   0  0  0  0  0  0  0  0  0  0  0  0
    0.0328  -13.7978    7.5253 H   0  0  0  0  0  0  0  0  0  0  0  0
    0.4573  -11.8236    6.2447 H   0  0  0  0  0  0  0  0  0  0  0  0
    1.0717  -11.5655   -0.7177 H   0  0  0  0  0  0  0  0  0  0  0  0
    2.5135  -11.1136    0.1413 H   0  0  0  0  0  0  0  0  0  0  0  0
    1.7936  -10.4935   -2.7422 H   0  0  0  0  0  0  0  0  0  0  0  0
    3.2161  -11.2778   -2.0722 H   0  0  0  0  0  0  0  0  0  0  0  0
    2.0107   -8.2867   -4.4627 H   0  0  0  0  0  0  0  0  0  0  0  0
    2.9207   -8.0966   -5.9293 H   0  0  0  0  0  0  0  0  0  0  0  0
    2.8761   -6.1638   -3.5934 H   0  0  0  0  0  0  0  0  0  0  0  0
    2.2790   -5.9077   -5.1963 H   0  0  0  0  0  0  0  0  0  0  0  0
    3.6717   -0.1388   -3.7249 H   0  0  0  0  0  0  0  0  0  0  0  0
    1.3228    0.0851   -3.0158 H   0  0  0  0  0  0  0  0  0  0  0  0
   -1.9670   -2.6453   -2.0743 H   0  0  0  0  0  0  0  0  0  0  0  0
   -0.7242   -3.6338   -1.3070 H   0  0  0  0  0  0  0  0  0  0  0  0
   -0.7220   -3.3851   -3.0927 H   0  0  0  0  0  0  0  0  0  0  0  0
    1.4418   -3.8837   -1.3481 H   0  0  0  0  0  0  0  0  0  0  0  0
    3.7634   -4.0963   -1.9805 H   0  0  0  0  0  0  0  0  0  0  0  0
    6.2145   -4.5261   -2.0168 H   0  0  0  0  0  0  0  0  0  0  0  0
    8.0910   -4.5110   -0.4348 H   0  0  0  0  0  0  0  0  0  0  0  0
  1  2  1  0  0  0  0
  1 52  1  0  0  0  0
  1 53  1  0  0  0  0
  1 54  1  0  0  0  0
  2  3  1  0  0  0  0
  3  4  1  0  0  0  0
  3 51  2  0  0  0  0
  4  5  2  0  0  0  0
  4 55  1  0  0  0  0
  5  6  1  0  0  0  0
  5 56  1  0  0  0  0
  6  7  1  0  0  0  0
  6 50  2  0  0  0  0
  7  8  1  0  0  0  0
  7 42  1  0  0  0  0
  7 57  1  0  0  0  0
  8  9  2  0  0  0  0
  8 10  1  0  0  0  0
 11 12  1  0  0  0  0
 11 41  1  0  0  0  0
 11 10  1  0  0  0  0
 11 58  1  6  0  0  0
 12 13  1  0  0  0  0
 12 59  1  0  0  0  0
 12 60  1  0  0  0  0
 13 14  1  0  0  0  0
 13 61  1  0  0  0  0
 13 62  1  0  0  0  0
 14 15  1  0  0  0  0
 14 40  1  0  0  0  0
 14 63  1  6  0  0  0
 15 16  1  0  0  0  0
 16 64  1  0  0  0  0
 16 65  1  0  0  0  0
 16 66  1  0  0  0  0
 17 18  1  0  0  0  0
 17 39  1  0  0  0  0
 17 15  1  0  0  0  0
 17 67  1  1  0  0  0
 18 19  1  0  0  0  0
 18 68  1  0  0  0  0
 18 69  1  0  0  0  0
 19 20  1  0  0  0  0
 19 70  1  0  0  0  0
 19 71  1  0  0  0  0
 20 38  1  0  0  0  0
 20 21  1  0  0  0  0
 20 72  1  6  0  0  0
 21 22  1  0  0  0  0
 22 23  2  0  0  0  0
 22 24  1  0  0  0  0
 24 25  3  0  0  0  0
 25 26  1  0  0  0  0
 26 27  1  0  0  0  0
 26 37  2  0  0  0  0
 27 28  2  0  0  0  0
 27 73  1  0  0  0  0
 28 29  1  0  0  0  0
 28 31  1  0  0  0  0
 29 30  1  0  0  0  0
 30 74  1  0  0  0  0
 30 75  1  0  0  0  0
 30 76  1  0  0  0  0
 31 32  1  0  0  0  0
 31 34  2  0  0  0  0
 32 33  1  0  0  0  0
 33 77  1  0  0  0  0
 33 78  1  0  0  0  0
 33 79  1  0  0  0  0
 34 35  1  0  0  0  0
 34 37  1  0  0  0  0
 35 36  1  0  0  0  0
 36 80  1  0  0  0  0
 36 81  1  0  0  0  0
 36 82  1  0  0  0  0
 37 83  1  0  0  0  0
 38 39  1  0  0  0  0
 38 84  1  0  0  0  0
 38 85  1  0  0  0  0
 39 86  1  0  0  0  0
 39 87  1  0  0  0  0
 40 41  1  0  0  0  0
 40 88  1  0  0  0  0
 40 89  1  0  0  0  0
 41 90  1  0  0  0  0
 41 91  1  0  0  0  0
 42 43  1  0  0  0  0
 42 49  2  0  0  0  0
 43 44  2  0  0  0  0
 43 92  1  0  0  0  0
 44 45  1  0  0  0  0
 44 93  1  0  0  0  0
 45 46  1  0  0  0  0
 45 48  2  0  0  0  0
 46 47  1  0  0  0  0
 47 94  1  0  0  0  0
 47 95  1  0  0  0  0
 47 96  1  0  0  0  0
 48 49  1  0  0  0  0
 48 97  1  0  0  0  0
 49 98  1  0  0  0  0
 50 51  1  0  0  0  0
 50 99  1  0  0  0  0
 51100  1  0  0  0  0
M  END
>  <Energy>
181.484

$$$$