90655516
  -OEChem-03242010103D

 44 45  0     0  0  0  0  0  0999 V2000
   -4.5657   -2.3017   -0.0270 S   0  0  0  0  0  0  0  0  0  0  0  0
    5.1790    0.5055    0.6928 O   0  0  0  0  0  0  0  0  0  0  0  0
    4.2931   -2.1049    0.4208 O   0  0  0  0  0  0  0  0  0  0  0  0
    3.5064    2.6001   -0.0006 O   0  0  0  0  0  0  0  0  0  0  0  0
   -0.1417   -1.1737   -2.3041 O   0  0  0  0  0  0  0  0  0  0  0  0
    1.3606   -0.2628   -0.7491 C   0  0  0  0  0  0  0  0  0  0  0  0
    3.9254    0.2529    0.2199 C   0  0  0  0  0  0  0  0  0  0  0  0
    3.4827   -1.0628    0.0839 C   0  0  0  0  0  0  0  0  0  0  0  0
    3.0857    1.3108   -0.1287 C   0  0  0  0  0  0  0  0  0  0  0  0
    2.2003   -1.3207   -0.4005 C   0  0  0  0  0  0  0  0  0  0  0  0
    1.8033    1.0529   -0.6131 C   0  0  0  0  0  0  0  0  0  0  0  0
   -0.0021   -0.5378   -1.2653 C   0  0  0  0  0  0  0  0  0  0  0  0
   -3.6191    0.3194   -0.2838 C   0  0  0  0  0  0  0  0  0  0  0  0
   -1.1554    0.0098   -0.4980 C   0  0  0  0  0  0  0  0  0  0  0  0
   -2.4161   -0.1831   -0.9391 C   0  0  0  0  0  0  0  0  0  0  0  0
   -4.6383   -0.5215    0.1628 C   0  0  0  0  0  0  0  0  0  0  0  0
   -3.7270    1.6992   -0.1104 C   0  0  0  0  0  0  0  0  0  0  0  0
   -5.7656    0.0173    0.7830 C   0  0  0  0  0  0  0  0  0  0  0  0
   -4.8544    2.2381    0.5098 C   0  0  0  0  0  0  0  0  0  0  0  0
   -5.8736    1.3972    0.9565 C   0  0  0  0  0  0  0  0  0  0  0  0
    5.3198    0.6560    2.1037 C   0  0  0  0  0  0  0  0  0  0  0  0
    3.7633   -3.4183    0.2515 C   0  0  0  0  0  0  0  0  0  0  0  0
    2.5864    3.6223   -0.3789 C   0  0  0  0  0  0  0  0  0  0  0  0
   -3.7471   -2.7940    1.5142 C   0  0  0  0  0  0  0  0  0  0  0  0
    1.7994   -2.3211   -0.5264 H   0  0  0  0  0  0  0  0  0  0  0  0
    1.1112    1.8351   -0.9071 H   0  0  0  0  0  0  0  0  0  0  0  0
   -0.9516    0.5618    0.4137 H   0  0  0  0  0  0  0  0  0  0  0  0
   -2.5957   -0.7498   -1.8499 H   0  0  0  0  0  0  0  0  0  0  0  0
   -2.9484    2.3762   -0.4547 H   0  0  0  0  0  0  0  0  0  0  0  0
   -6.5723   -0.6189    1.1393 H   0  0  0  0  0  0  0  0  0  0  0  0
   -4.9392    3.3125    0.6440 H   0  0  0  0  0  0  0  0  0  0  0  0
   -6.7513    1.8170    1.4392 H   0  0  0  0  0  0  0  0  0  0  0  0
    6.3727    0.8521    2.3237 H   0  0  0  0  0  0  0  0  0  0  0  0
    5.0195   -0.2607    2.6209 H   0  0  0  0  0  0  0  0  0  0  0  0
    4.7244    1.5015    2.4624 H   0  0  0  0  0  0  0  0  0  0  0  0
    4.5410   -4.1219    0.5667 H   0  0  0  0  0  0  0  0  0  0  0  0
    2.8976   -3.5914    0.8999 H   0  0  0  0  0  0  0  0  0  0  0  0
    3.5477   -3.6346   -0.8005 H   0  0  0  0  0  0  0  0  0  0  0  0
    2.3454    3.5740   -1.4464 H   0  0  0  0  0  0  0  0  0  0  0  0
    1.6915    3.6146    0.2527 H   0  0  0  0  0  0  0  0  0  0  0  0
    3.0850    4.5824   -0.2099 H   0  0  0  0  0  0  0  0  0  0  0  0
   -3.6370   -3.8813    1.5330 H   0  0  0  0  0  0  0  0  0  0  0  0
   -4.3444   -2.4868    2.3767 H   0  0  0  0  0  0  0  0  0  0  0  0
   -2.7549   -2.3400    1.5815 H   0  0  0  0  0  0  0  0  0  0  0  0
  1 16  1  0  0  0  0
  1 24  1  0  0  0  0
  2  7  1  0  0  0  0
  2 21  1  0  0  0  0
  3  8  1  0  0  0  0
  3 22  1  0  0  0  0
  4  9  1  0  0  0  0
  4 23  1  0  0  0  0
  5 12  2  0  0  0  0
  6 10  2  0  0  0  0
  6 11  1  0  0  0  0
  6 12  1  0  0  0  0
  7  8  2  0  0  0  0
  7  9  1  0  0  0  0
  8 10  1  0  0  0  0
  9 11  2  0  0  0  0
 10 25  1  0  0  0  0
 11 26  1  0  0  0  0
 12 14  1  0  0  0  0
 13 15  1  0  0  0  0
 13 16  1  0  0  0  0
 13 17  2  0  0  0  0
 14 15  2  0  0  0  0
 14 27  1  0  0  0  0
 15 28  1  0  0  0  0
 16 18  2  0  0  0  0
 17 19  1  0  0  0  0
 17 29  1  0  0  0  0
 18 20  1  0  0  0  0
 18 30  1  0  0  0  0
 19 20  2  0  0  0  0
 19 31  1  0  0  0  0
 20 32  1  0  0  0  0
 21 33  1  0  0  0  0
 21 34  1  0  0  0  0
 21 35  1  0  0  0  0
 22 36  1  0  0  0  0
 22 37  1  0  0  0  0
 22 38  1  0  0  0  0
 23 39  1  0  0  0  0
 23 40  1  0  0  0  0
 23 41  1  0  0  0  0
 24 42  1  0  0  0  0
 24 43  1  0  0  0  0
 24 44  1  0  0  0  0
M  END
> <PUBCHEM_COMPOUND_CID>
90655516

> <PUBCHEM_CONFORMER_RMSD>
0.8

> <PUBCHEM_CONFORMER_DIVERSEORDER>
12
81
79
36
4
24
18
83
52
39
7
60
72
87
45
15
56
63
69
30
68
84
25
22
64
88
71
20
28
51
47
11
74
50
66
80
86
10
35
93
85
82
14
21
43
8
29
91
27
31
61
76
2
26
42
92
6
70
41
89
38
58
77
1
48
67
34
59
78
13
33
5
16
46
9
49
55
54
17
73
37
32
62
90
94
65
3
57
53
40
75
23
19
44

> <PUBCHEM_MMFF94_PARTIAL_CHARGES>
32
1 -0.33
10 -0.15
11 -0.15
12 0.47
13 0.03
14 -0.14
15 -0.18
16 0.1
17 -0.15
18 -0.15
19 -0.15
2 -0.36
20 -0.15
21 0.28
22 0.28
23 0.28
24 0.23
25 0.15
26 0.15
27 0.15
28 0.15
29 0.15
3 -0.36
30 0.15
31 0.15
32 0.15
4 -0.36
5 -0.57
6 0.09
7 0.08
8 0.08
9 0.08

> <PUBCHEM_EFFECTIVE_ROTOR_COUNT>
7

> <PUBCHEM_PHARMACOPHORE_FEATURES>
7
1 2 acceptor
1 24 hydrophobe
1 3 acceptor
1 4 acceptor
1 5 acceptor
6 13 16 17 18 19 20 rings
6 6 7 8 9 10 11 rings

> <PUBCHEM_HEAVY_ATOM_COUNT>
24

> <PUBCHEM_ATOM_DEF_STEREO_COUNT>
0

> <PUBCHEM_ATOM_UDEF_STEREO_COUNT>
0

> <PUBCHEM_BOND_DEF_STEREO_COUNT>
1

> <PUBCHEM_BOND_UDEF_STEREO_COUNT>
0

> <PUBCHEM_ISOTOPIC_ATOM_COUNT>
0

> <PUBCHEM_COMPONENT_COUNT>
1

> <PUBCHEM_CACTVS_TAUTO_COUNT>
1

> <PUBCHEM_CONFORMER_ID>
05674B1C0000000C

> <PUBCHEM_MMFF94_ENERGY>
105.3256

> <PUBCHEM_FEATURE_SELFOVERLAP>
35.532

> <PUBCHEM_SHAPE_FINGERPRINT>
10319926 262 18410017615410005535
10670039 82 16558208032971229560
11045977 3 18334860502419953983
11135609 201 17696182987243191912
11370993 144 18335141960406712519
11405975 8 18410016520362000715
11552529 35 18266738163793777615
12107183 9 18051132497571662291
12403259 118 18271520991876352485
12553582 1 15285362825266414959
12596602 18 18060698407378584850
12633257 1 18113613503892269920
12892183 10 18412541024354528702
13533116 47 18333736814653461707
13583140 156 18201435930246391523
13785724 45 17840032836460823078
14251764 38 18410298046820205881
14341114 176 18410860914942388521
14341114 328 18335425694330557421
14347332 77 8790609161658895217
14790565 3 18265332996940412380
14849402 71 18191023602956982084
14950920 106 18115299107020748937
15188451 53 17458348585159011467
15250474 111 18340480192265064279
15475509 84 17700686269243085648
15575132 122 12966587313802147187
17844677 252 18341059566146466751
1813 80 16298393430911214615
18222031 100 15791739589744992047
18785283 64 18115022043403303972
19377110 9 18130217276660530911
20715895 44 17984426235617864689
20739085 24 18341894031448366318
21033648 29 17631999914788190618
21065198 48 18411701006472208183
21065198 57 18409451379906628247
21065199 12 18408605885403149455
21315764 268 18335422344767834653
21859007 373 17605829215161398741
23559900 14 18339647745682060079
29717793 49 11963390721699362106
3117164 225 18338237064032105671
312425 54 18261393308695078763
3421961 26 18266736884041170726
3680242 22 18199761262605749857
38570 142 18193294102957950628
4073 2 18260274082834974651
5104073 3 18342742897221864099
5924683 9 18340205284884134215
960060 61 8286195046209108701

> <PUBCHEM_SHAPE_MULTIPOLES>
474.28
14.59
3.42
1.34
6.39
0.14
0.07
-1.07
6.74
-1.37
0.49
-0.42
0.28
0.05

> <PUBCHEM_SHAPE_SELFOVERLAP>
986.659

> <PUBCHEM_SHAPE_VOLUME>
273.6

> <PUBCHEM_COORDINATE_TYPE>
2
5
10

$$$$