7
 OpenBabel03292022243D

 85 88  0  0  0  0  0  0  0  0999 V2000
    9.7509  -16.0772    6.0387 C   0  0  0  0  0  0  0  0  0  0  0  0
   10.7205  -15.7442    7.0327 O   0  0  0  0  0  0  0  0  0  0  0  0
   11.9417  -15.3232    6.5646 C   0  0  0  0  0  0  0  0  0  0  0  0
   12.0112  -14.5221    5.4101 C   0  0  0  0  0  0  0  0  0  0  0  0
   13.2364  -14.1259    4.8736 C   0  0  0  0  0  0  0  0  0  0  0  0
   13.3529  -13.4424    3.5771 C   0  0  0  0  0  0  0  0  0  0  0  0
   12.4082  -12.6761    3.0104 C   0  0  0  0  0  0  0  0  0  0  0  0
   12.6383  -12.1368    1.6553 C   0  0  0  0  0  0  0  0  0  0  0  0
   13.6279  -12.3520    0.9756 O   0  0  0  0  0  0  0  0  0  0  0  0
   11.5637  -11.3841    1.3106 O   0  0  0  0  0  0  0  0  0  0  0  0
   11.6461  -10.7661    0.0149 C   0  0  0  0  0  0  0  0  0  0  0  0
   12.4761   -9.4884    0.1047 C   0  0  0  0  0  0  0  0  0  0  0  0
   12.6004   -8.7928   -1.2493 C   0  0  0  0  0  0  0  0  0  0  0  0
   13.4305   -7.5028   -1.1935 C   0  0  0  0  0  0  0  0  0  0  0  0
   14.8980   -7.6934   -0.7737 C   0  0  0  0  0  0  0  0  0  0  0  0
   15.6312   -8.6892   -1.5816 N   0  0  0  0  0  0  0  0  0  0  0  0
   15.8421   -8.2120   -2.9479 C   0  0  0  0  0  0  0  0  0  0  0  0
   16.9301   -9.0450   -0.9774 C   0  0  0  0  0  0  0  0  0  0  0  0
   16.7355   -9.8685    0.2879 C   0  0  0  0  0  0  0  0  0  0  0  0
   18.0448  -10.3035    0.9270 C   0  0  0  0  0  0  0  0  0  0  0  0
   17.7037  -10.9334    2.1736 O   0  0  0  0  0  0  0  0  0  0  0  0
   17.5232  -10.0404    3.1735 C   0  0  0  0  0  0  0  0  0  0  0  0
   17.7745   -8.8433    3.1096 O   0  0  0  0  0  0  0  0  0  0  0  0
   16.8858  -10.6361    4.3703 C   0  0  0  0  0  0  0  0  0  0  0  0
   15.8552   -9.8400    4.9277 C   0  0  0  0  0  0  0  0  0  0  0  0
   15.0042   -9.0233    4.1480 C   0  0  0  0  0  0  0  0  0  0  0  0
   14.2556   -8.0065    4.7248 C   0  0  0  0  0  0  0  0  0  0  0  0
   14.3032   -7.8289    6.1012 C   0  0  0  0  0  0  0  0  0  0  0  0
   14.9917   -8.7530    6.8983 C   0  0  0  0  0  0  0  0  0  0  0  0
   15.7456   -9.7908    6.3255 C   0  0  0  0  0  0  0  0  0  0  0  0
   16.4654  -10.7262    7.0940 C   0  0  0  0  0  0  0  0  0  0  0  0
   17.3530  -11.6510    6.5153 C   0  0  0  0  0  0  0  0  0  0  0  0
   18.0567  -12.5762    7.2995 C   0  0  0  0  0  0  0  0  0  0  0  0
   18.9974  -13.4371    6.7379 C   0  0  0  0  0  0  0  0  0  0  0  0
   19.2586  -13.3923    5.3773 C   0  0  0  0  0  0  0  0  0  0  0  0
   18.5648  -12.4831    4.5784 C   0  0  0  0  0  0  0  0  0  0  0  0
   17.5988  -11.5992    5.1205 C   0  0  0  0  0  0  0  0  0  0  0  0
   14.3991  -14.5037    5.5443 C   0  0  0  0  0  0  0  0  0  0  0  0
   14.3585  -15.2520    6.7333 C   0  0  0  0  0  0  0  0  0  0  0  0
   15.6254  -15.4935    7.2061 O   0  0  0  0  0  0  0  0  0  0  0  0
   15.8056  -16.2703    8.3777 C   0  0  0  0  0  0  0  0  0  0  0  0
   13.1185  -15.6699    7.2647 C   0  0  0  0  0  0  0  0  0  0  0  0
   13.1769  -16.3858    8.4301 O   0  0  0  0  0  0  0  0  0  0  0  0
   12.0215  -17.0088    8.9640 C   0  0  0  0  0  0  0  0  0  0  0  0
    9.1867  -16.9440    6.3953 H   0  0  0  0  0  0  0  0  0  0  0  0
   10.1896  -16.3535    5.0727 H   0  0  0  0  0  0  0  0  0  0  0  0
    9.0554  -15.2413    5.9162 H   0  0  0  0  0  0  0  0  0  0  0  0
   11.0938  -14.2236    4.9129 H   0  0  0  0  0  0  0  0  0  0  0  0
   14.2874  -13.6210    3.0439 H   0  0  0  0  0  0  0  0  0  0  0  0
   11.4647  -12.4390    3.4818 H   0  0  0  0  0  0  0  0  0  0  0  0
   10.6211  -10.5304   -0.2922 H   0  0  0  0  0  0  0  0  0  0  0  0
   12.0487  -11.4685   -0.7253 H   0  0  0  0  0  0  0  0  0  0  0  0
   13.4662   -9.7335    0.5021 H   0  0  0  0  0  0  0  0  0  0  0  0
   12.0188   -8.8130    0.8384 H   0  0  0  0  0  0  0  0  0  0  0  0
   11.5971   -8.5389   -1.6131 H   0  0  0  0  0  0  0  0  0  0  0  0
   13.0307   -9.4836   -1.9838 H   0  0  0  0  0  0  0  0  0  0  0  0
   12.9602   -6.8110   -0.4831 H   0  0  0  0  0  0  0  0  0  0  0  0
   13.3853   -7.0089   -2.1697 H   0  0  0  0  0  0  0  0  0  0  0  0
   14.8739   -7.9818    0.2797 H   0  0  0  0  0  0  0  0  0  0  0  0
   15.4139   -6.7245   -0.7988 H   0  0  0  0  0  0  0  0  0  0  0  0
   14.8905   -8.0531   -3.4656 H   0  0  0  0  0  0  0  0  0  0  0  0
   16.3811   -8.9619   -3.5391 H   0  0  0  0  0  0  0  0  0  0  0  0
   16.4147   -7.2793   -2.9741 H   0  0  0  0  0  0  0  0  0  0  0  0
   17.5278   -8.1475   -0.7731 H   0  0  0  0  0  0  0  0  0  0  0  0
   17.5062   -9.6620   -1.6795 H   0  0  0  0  0  0  0  0  0  0  0  0
   16.1311  -10.7595    0.0822 H   0  0  0  0  0  0  0  0  0  0  0  0
   16.1711   -9.2984    1.0301 H   0  0  0  0  0  0  0  0  0  0  0  0
   18.7338   -9.4604    1.0767 H   0  0  0  0  0  0  0  0  0  0  0  0
   18.5704  -11.0356    0.3078 H   0  0  0  0  0  0  0  0  0  0  0  0
   14.9632   -9.1485    3.0655 H   0  0  0  0  0  0  0  0  0  0  0  0
   13.6878   -7.3270    4.0951 H   0  0  0  0  0  0  0  0  0  0  0  0
   13.8120   -6.9740    6.5529 H   0  0  0  0  0  0  0  0  0  0  0  0
   14.9893   -8.6097    7.9785 H   0  0  0  0  0  0  0  0  0  0  0  0
   16.3478  -10.7153    8.1808 H   0  0  0  0  0  0  0  0  0  0  0  0
   17.8831  -12.6232    8.3772 H   0  0  0  0  0  0  0  0  0  0  0  0
   19.5412  -14.1379    7.3682 H   0  0  0  0  0  0  0  0  0  0  0  0
   19.9884  -14.0567    4.9290 H   0  0  0  0  0  0  0  0  0  0  0  0
   18.7835  -12.4944    3.5118 H   0  0  0  0  0  0  0  0  0  0  0  0
   15.3736  -14.2212    5.1464 H   0  0  0  0  0  0  0  0  0  0  0  0
   16.8834  -16.3755    8.5389 H   0  0  0  0  0  0  0  0  0  0  0  0
   15.4029  -17.2810    8.2582 H   0  0  0  0  0  0  0  0  0  0  0  0
   15.3970  -15.7605    9.2553 H   0  0  0  0  0  0  0  0  0  0  0  0
   12.3416  -17.5995    9.8287 H   0  0  0  0  0  0  0  0  0  0  0  0
   11.5730  -17.7064    8.2500 H   0  0  0  0  0  0  0  0  0  0  0  0
   11.3051  -16.2682    9.3312 H   0  0  0  0  0  0  0  0  0  0  0  0
  1  2  1  0  0  0  0
  1 45  1  0  0  0  0
  1 46  1  0  0  0  0
  1 47  1  0  0  0  0
  2  3  1  0  0  0  0
  3  4  1  0  0  0  0
  3 42  2  0  0  0  0
  4  5  2  0  0  0  0
  4 48  1  0  0  0  0
  5  6  1  0  0  0  0
  5 38  1  0  0  0  0
  6  7  2  0  0  0  0
  6 49  1  0  0  0  0
  7  8  1  0  0  0  0
  7 50  1  0  0  0  0
  8  9  2  0  0  0  0
  8 10  1  0  0  0  0
 10 11  1  0  0  0  0
 11 12  1  0  0  0  0
 11 51  1  0  0  0  0
 11 52  1  0  0  0  0
 12 13  1  0  0  0  0
 12 53  1  0  0  0  0
 12 54  1  0  0  0  0
 13 14  1  0  0  0  0
 13 55  1  0  0  0  0
 13 56  1  0  0  0  0
 14 15  1  0  0  0  0
 14 57  1  0  0  0  0
 14 58  1  0  0  0  0
 15 16  1  0  0  0  0
 15 59  1  0  0  0  0
 15 60  1  0  0  0  0
 16 17  1  0  0  0  0
 16 18  1  0  0  0  0
 17 61  1  0  0  0  0
 17 62  1  0  0  0  0
 17 63  1  0  0  0  0
 18 19  1  0  0  0  0
 18 64  1  0  0  0  0
 18 65  1  0  0  0  0
 19 20  1  0  0  0  0
 19 66  1  0  0  0  0
 19 67  1  0  0  0  0
 20 21  1  0  0  0  0
 20 68  1  0  0  0  0
 20 69  1  0  0  0  0
 21 22  1  0  0  0  0
 22 23  2  0  0  0  0
 22 24  1  0  0  0  0
 24 25  1  0  0  0  0
 24 37  2  0  0  0  0
 25 26  1  0  0  0  0
 25 30  2  0  0  0  0
 26 27  2  0  0  0  0
 26 70  1  0  0  0  0
 27 28  1  0  0  0  0
 27 71  1  0  0  0  0
 28 29  2  0  0  0  0
 28 72  1  0  0  0  0
 29 30  1  0  0  0  0
 29 73  1  0  0  0  0
 30 31  1  0  0  0  0
 31 32  2  0  0  0  0
 31 74  1  0  0  0  0
 32 33  1  0  0  0  0
 32 37  1  0  0  0  0
 33 34  2  0  0  0  0
 33 75  1  0  0  0  0
 34 35  1  0  0  0  0
 34 76  1  0  0  0  0
 35 36  2  0  0  0  0
 35 77  1  0  0  0  0
 36 37  1  0  0  0  0
 36 78  1  0  0  0  0
 38 39  2  0  0  0  0
 38 79  1  0  0  0  0
 39 40  1  0  0  0  0
 39 42  1  0  0  0  0
 40 41  1  0  0  0  0
 41 80  1  0  0  0  0
 41 81  1  0  0  0  0
 41 82  1  0  0  0  0
 42 43  1  0  0  0  0
 43 44  1  0  0  0  0
 44 83  1  0  0  0  0
 44 84  1  0  0  0  0
 44 85  1  0  0  0  0
M  END
>  <Energy>
131.152

$$$$