12
 OpenBabel03292022243D

108111  0  0  1  0  0  0  0  0999 V2000
   11.4476   -6.7870   -7.3748 C   0  0  0  0  0  0  0  0  0  0  0  0
   11.6143   -7.1642   -6.0079 O   0  0  0  0  0  0  0  0  0  0  0  0
   10.8153   -6.5187   -5.1033 C   0  0  0  0  0  0  0  0  0  0  0  0
    9.5030   -6.1577   -5.4269 C   0  0  0  0  0  0  0  0  0  0  0  0
    8.6958   -5.4582   -4.5240 C   0  0  0  0  0  0  0  0  0  0  0  0
    9.1526   -5.1441   -3.2354 C   0  0  0  0  0  0  0  0  0  0  0  0
    8.2874   -4.3418   -2.2238 C   0  0  3  0  0  0  0  0  0  0  0  0
    6.9828   -3.9102   -2.8027 C   0  0  0  0  0  0  0  0  0  0  0  0
    5.9696   -3.5812   -3.2631 N   0  0  0  0  0  0  0  0  0  0  0  0
    7.9497   -5.2522   -0.9757 C   0  0  0  0  0  0  0  0  0  0  0  0
    7.2618   -6.5856   -1.3368 C   0  0  0  0  0  0  0  0  0  0  0  0
    6.9631   -7.5061   -0.1577 C   0  0  0  0  0  0  0  0  0  0  0  0
    6.3700   -7.1837    0.8694 O   0  0  0  0  0  0  0  0  0  0  0  0
    7.3977   -8.7534   -0.4722 O   0  0  0  0  0  0  0  0  0  0  0  0
    7.1589   -9.9093    0.3779 C   0  0  1  0  0  0  0  0  0  0  0  0
    5.6793  -10.3063    0.3651 C   0  0  0  0  0  0  0  0  0  0  0  0
    5.4371  -11.7620    0.7655 C   0  0  0  0  0  0  0  0  0  0  0  0
    6.1973  -12.7693   -0.1315 C   0  0  1  0  0  0  0  0  0  0  0  0
    5.6930  -12.8086   -1.5462 N   0  0  0  0  0  0  0  0  0  0  0  0
    4.3063  -13.3106   -1.5687 C   0  0  0  0  0  0  0  0  0  0  0  0
    6.5585  -13.5778   -2.4885 C   0  0  1  0  0  0  0  0  0  0  0  0
    6.8170  -15.0376   -2.0658 C   0  0  0  0  0  0  0  0  0  0  0  0
    7.9023  -15.6423   -2.9431 C   0  0  0  0  0  0  0  0  0  0  0  0
    7.4381  -15.7169   -4.3971 C   0  0  2  0  0  0  0  0  0  0  0  0
    8.5092  -16.2329   -5.2066 O   0  0  0  0  0  0  0  0  0  0  0  0
    8.7126  -17.5738   -5.1118 C   0  0  0  0  0  0  0  0  0  0  0  0
    8.0476  -18.3644   -4.4662 O   0  0  0  0  0  0  0  0  0  0  0  0
    9.8707  -18.0090   -5.9159 C   0  0  0  0  0  0  0  0  0  0  0  0
   10.6612  -17.1724   -6.6022 C   0  0  0  0  0  0  0  0  0  0  0  0
   11.7044  -17.6886   -7.4851 C   0  0  0  0  0  0  0  0  0  0  0  0
   11.3589  -18.0433   -8.7802 C   0  0  0  0  0  0  0  0  0  0  0  0
   12.3246  -18.5301   -9.6697 C   0  0  0  0  0  0  0  0  0  0  0  0
   12.0352  -18.8677  -10.9675 O   0  0  0  0  0  0  0  0  0  0  0  0
   10.8701  -18.2664  -11.5238 C   0  0  0  0  0  0  0  0  0  0  0  0
   13.6539  -18.7039   -9.2205 C   0  0  0  0  0  0  0  0  0  0  0  0
   14.5038  -19.2741  -10.1502 O   0  0  0  0  0  0  0  0  0  0  0  0
   15.8582  -18.8453  -10.1423 C   0  0  0  0  0  0  0  0  0  0  0  0
   14.0018  -18.3684   -7.9019 C   0  0  0  0  0  0  0  0  0  0  0  0
   15.2927  -18.5969   -7.4878 O   0  0  0  0  0  0  0  0  0  0  0  0
   15.6508  -18.2471   -6.1590 C   0  0  0  0  0  0  0  0  0  0  0  0
   13.0222  -17.8435   -7.0389 C   0  0  0  0  0  0  0  0  0  0  0  0
    7.0575  -14.3185   -4.9055 C   0  0  0  0  0  0  0  0  0  0  0  0
    6.0713  -13.5944   -3.9709 C   0  0  0  0  0  0  0  0  0  0  0  0
    7.6953  -12.4425    0.0812 C   0  0  0  0  0  0  0  0  0  0  0  0
    8.0821  -10.9942   -0.2006 C   0  0  0  0  0  0  0  0  0  0  0  0
    9.0765   -3.0275   -1.7972 C   0  0  0  0  0  0  0  0  0  0  0  0
    9.4567   -2.1215   -2.9909 C   0  0  0  0  0  0  0  0  0  0  0  0
    8.3401   -2.1536   -0.7668 C   0  0  0  0  0  0  0  0  0  0  0  0
   10.4466   -5.5855   -2.8952 C   0  0  0  0  0  0  0  0  0  0  0  0
   11.2873   -6.2536   -3.8113 C   0  0  0  0  0  0  0  0  0  0  0  0
   12.5140   -6.5406   -3.2730 O   0  0  0  0  0  0  0  0  0  0  0  0
   13.5391   -7.0446   -4.1183 C   0  0  0  0  0  0  0  0  0  0  0  0
   12.4419   -6.6977   -7.8228 H   0  0  0  0  0  0  0  0  0  0  0  0
   10.9478   -5.8219   -7.5155 H   0  0  0  0  0  0  0  0  0  0  0  0
   10.9010   -7.5746   -7.9022 H   0  0  0  0  0  0  0  0  0  0  0  0
    9.0757   -6.4092   -6.3948 H   0  0  0  0  0  0  0  0  0  0  0  0
    7.7058   -5.1679   -4.8715 H   0  0  0  0  0  0  0  0  0  0  0  0
    7.2861   -4.7105   -0.2885 H   0  0  0  0  0  0  0  0  0  0  0  0
    8.8644   -5.4641   -0.4074 H   0  0  0  0  0  0  0  0  0  0  0  0
    7.9048   -7.1406   -2.0297 H   0  0  0  0  0  0  0  0  0  0  0  0
    6.3120   -6.4117   -1.8554 H   0  0  0  0  0  0  0  0  0  0  0  0
    7.4746   -9.6723    1.4040 H   0  0  0  0  0  0  0  0  0  0  0  0
    5.2412  -10.1055   -0.6186 H   0  0  0  0  0  0  0  0  0  0  0  0
    5.1359   -9.6618    1.0684 H   0  0  0  0  0  0  0  0  0  0  0  0
    4.3630  -11.9671    0.7854 H   0  0  0  0  0  0  0  0  0  0  0  0
    5.7659  -11.9065    1.8045 H   0  0  0  0  0  0  0  0  0  0  0  0
    6.0345  -13.7647    0.3035 H   0  0  0  0  0  0  0  0  0  0  0  0
    3.6321  -12.6689   -0.9963 H   0  0  0  0  0  0  0  0  0  0  0  0
    4.2297  -14.3270   -1.1658 H   0  0  0  0  0  0  0  0  0  0  0  0
    3.8821  -13.3071   -2.5762 H   0  0  0  0  0  0  0  0  0  0  0  0
    7.5182  -13.0479   -2.5230 H   0  0  0  0  0  0  0  0  0  0  0  0
    5.9004  -15.6344   -2.1628 H   0  0  0  0  0  0  0  0  0  0  0  0
    7.1393  -15.1147   -1.0247 H   0  0  0  0  0  0  0  0  0  0  0  0
    8.1708  -16.6338   -2.5656 H   0  0  0  0  0  0  0  0  0  0  0  0
    8.8214  -15.0436   -2.8769 H   0  0  0  0  0  0  0  0  0  0  0  0
    6.5591  -16.3691   -4.4879 H   0  0  0  0  0  0  0  0  0  0  0  0
   10.0266  -19.0826   -5.9305 H   0  0  0  0  0  0  0  0  0  0  0  0
   10.5174  -16.0950   -6.6058 H   0  0  0  0  0  0  0  0  0  0  0  0
   10.3216  -17.9459   -9.0852 H   0  0  0  0  0  0  0  0  0  0  0  0
   10.8670  -18.4580  -12.6000 H   0  0  0  0  0  0  0  0  0  0  0  0
   10.8726  -17.1790  -11.3797 H   0  0  0  0  0  0  0  0  0  0  0  0
    9.9605  -18.7138  -11.1087 H   0  0  0  0  0  0  0  0  0  0  0  0
   16.3036  -19.1426  -11.0989 H   0  0  0  0  0  0  0  0  0  0  0  0
   16.4329  -19.3551   -9.3646 H   0  0  0  0  0  0  0  0  0  0  0  0
   15.9417  -17.7575  -10.0612 H   0  0  0  0  0  0  0  0  0  0  0  0
   16.7037  -18.5087   -6.0165 H   0  0  0  0  0  0  0  0  0  0  0  0
   15.0674  -18.8159   -5.4271 H   0  0  0  0  0  0  0  0  0  0  0  0
   15.5510  -17.1685   -5.9965 H   0  0  0  0  0  0  0  0  0  0  0  0
   13.2457  -17.5737   -6.0186 H   0  0  0  0  0  0  0  0  0  0  0  0
    6.6199  -14.4094   -5.9085 H   0  0  0  0  0  0  0  0  0  0  0  0
    7.9609  -13.7095   -5.0356 H   0  0  0  0  0  0  0  0  0  0  0  0
    5.1095  -14.1141   -4.0598 H   0  0  0  0  0  0  0  0  0  0  0  0
    5.9175  -12.5709   -4.3329 H   0  0  0  0  0  0  0  0  0  0  0  0
    8.3431  -13.1075   -0.4998 H   0  0  0  0  0  0  0  0  0  0  0  0
    7.9424  -12.6642    1.1290 H   0  0  0  0  0  0  0  0  0  0  0  0
    8.1776  -10.8565   -1.2846 H   0  0  0  0  0  0  0  0  0  0  0  0
    9.0933  -10.8219    0.1951 H   0  0  0  0  0  0  0  0  0  0  0  0
   10.0193   -3.3292   -1.3226 H   0  0  0  0  0  0  0  0  0  0  0  0
    8.5731   -1.6845   -3.4682 H   0  0  0  0  0  0  0  0  0  0  0  0
   10.0271   -2.6572   -3.7548 H   0  0  0  0  0  0  0  0  0  0  0  0
   10.0875   -1.2909   -2.6522 H   0  0  0  0  0  0  0  0  0  0  0  0
    7.3769   -1.7971   -1.1462 H   0  0  0  0  0  0  0  0  0  0  0  0
    8.9369   -1.2671   -0.5214 H   0  0  0  0  0  0  0  0  0  0  0  0
    8.1686   -2.6922    0.1685 H   0  0  0  0  0  0  0  0  0  0  0  0
   10.8452   -5.3982   -1.8981 H   0  0  0  0  0  0  0  0  0  0  0  0
   14.4784   -7.0010   -3.5569 H   0  0  0  0  0  0  0  0  0  0  0  0
   13.6803   -6.4271   -5.0106 H   0  0  0  0  0  0  0  0  0  0  0  0
   13.3561   -8.0940   -4.3693 H   0  0  0  0  0  0  0  0  0  0  0  0
  1  2  1  0  0  0  0
  1 53  1  0  0  0  0
  1 54  1  0  0  0  0
  1 55  1  0  0  0  0
  2  3  1  0  0  0  0
  3  4  1  0  0  0  0
  3 50  2  0  0  0  0
  4  5  2  0  0  0  0
  4 56  1  0  0  0  0
  5  6  1  0  0  0  0
  5 57  1  0  0  0  0
  6  7  1  0  0  0  0
  6 49  2  0  0  0  0
  7  8  1  0  0  0  0
  7 10  1  0  0  0  0
  7 46  1  0  0  0  0
  8  9  3  0  0  0  0
 10 11  1  0  0  0  0
 10 58  1  0  0  0  0
 10 59  1  0  0  0  0
 11 12  1  0  0  0  0
 11 60  1  0  0  0  0
 11 61  1  0  0  0  0
 12 13  2  0  0  0  0
 12 14  1  0  0  0  0
 15 16  1  0  0  0  0
 15 45  1  0  0  0  0
 15 14  1  0  0  0  0
 15 62  1  1  0  0  0
 16 17  1  0  0  0  0
 16 63  1  0  0  0  0
 16 64  1  0  0  0  0
 17 18  1  0  0  0  0
 17 65  1  0  0  0  0
 17 66  1  0  0  0  0
 18 19  1  0  0  0  0
 18 44  1  0  0  0  0
 18 67  1  1  0  0  0
 19 20  1  0  0  0  0
 20 68  1  0  0  0  0
 20 69  1  0  0  0  0
 20 70  1  0  0  0  0
 21 22  1  0  0  0  0
 21 43  1  0  0  0  0
 21 19  1  0  0  0  0
 21 71  1  6  0  0  0
 22 23  1  0  0  0  0
 22 72  1  0  0  0  0
 22 73  1  0  0  0  0
 23 24  1  0  0  0  0
 23 74  1  0  0  0  0
 23 75  1  0  0  0  0
 24 42  1  0  0  0  0
 24 25  1  0  0  0  0
 24 76  1  6  0  0  0
 25 26  1  0  0  0  0
 26 27  2  0  0  0  0
 26 28  1  0  0  0  0
 28 29  2  0  0  0  0
 28 77  1  0  0  0  0
 29 30  1  0  0  0  0
 29 78  1  0  0  0  0
 30 31  1  0  0  0  0
 30 41  2  0  0  0  0
 31 32  2  0  0  0  0
 31 79  1  0  0  0  0
 32 33  1  0  0  0  0
 32 35  1  0  0  0  0
 33 34  1  0  0  0  0
 34 80  1  0  0  0  0
 34 81  1  0  0  0  0
 34 82  1  0  0  0  0
 35 36  1  0  0  0  0
 35 38  2  0  0  0  0
 36 37  1  0  0  0  0
 37 83  1  0  0  0  0
 37 84  1  0  0  0  0
 37 85  1  0  0  0  0
 38 39  1  0  0  0  0
 38 41  1  0  0  0  0
 39 40  1  0  0  0  0
 40 86  1  0  0  0  0
 40 87  1  0  0  0  0
 40 88  1  0  0  0  0
 41 89  1  0  0  0  0
 42 43  1  0  0  0  0
 42 90  1  0  0  0  0
 42 91  1  0  0  0  0
 43 92  1  0  0  0  0
 43 93  1  0  0  0  0
 44 45  1  0  0  0  0
 44 94  1  0  0  0  0
 44 95  1  0  0  0  0
 45 96  1  0  0  0  0
 45 97  1  0  0  0  0
 46 47  1  0  0  0  0
 46 48  1  0  0  0  0
 46 98  1  0  0  0  0
 47 99  1  0  0  0  0
 47100  1  0  0  0  0
 47101  1  0  0  0  0
 48102  1  0  0  0  0
 48103  1  0  0  0  0
 48104  1  0  0  0  0
 49 50  1  0  0  0  0
 49105  1  0  0  0  0
 50 51  1  0  0  0  0
 51 52  1  0  0  0  0
 52106  1  0  0  0  0
 52107  1  0  0  0  0
 52108  1  0  0  0  0
M  END
>  <Energy>
147.84

$$$$