13
 OpenBabel03292022243D

 95 98  0  0  1  0  0  0  0  0999 V2000
    5.4067   10.3547    0.8876 C   0  0  0  0  0  0  0  0  0  0  0  0
    4.8967    9.6225    2.0046 O   0  0  0  0  0  0  0  0  0  0  0  0
    5.6773    8.5784    2.4356 C   0  0  0  0  0  0  0  0  0  0  0  0
    7.0738    8.7196    2.4442 C   0  0  0  0  0  0  0  0  0  0  0  0
    7.9039    7.6473    2.7641 C   0  0  0  0  0  0  0  0  0  0  0  0
    9.3913    7.7591    2.5720 C   0  0  0  0  0  0  0  0  0  0  0  0
   10.1378    8.3458    3.7710 C   0  0  0  0  0  0  0  0  0  0  0  0
   11.6225    8.4641    3.4916 C   0  0  0  0  0  0  0  0  0  0  0  0
   12.4959    8.4203    4.3601 O   0  0  0  0  0  0  0  0  0  0  0  0
   11.8341    8.6909    2.1816 O   0  0  0  0  0  0  0  0  0  0  0  0
   13.1633    8.8768    1.6493 C   0  0  1  0  0  0  0  0  0  0  0  0
   13.3293    7.8123    0.5580 C   0  0  0  0  0  0  0  0  0  0  0  0
   14.3252    8.1570   -0.5482 C   0  0  0  0  0  0  0  0  0  0  0  0
   14.1331    9.5744   -1.1424 C   0  0  1  0  0  0  0  0  0  0  0  0
   12.8827    9.7256   -1.9657 N   0  0  0  0  0  0  0  0  0  0  0  0
   13.0177    9.0211   -3.2446 C   0  0  0  0  0  0  0  0  0  0  0  0
   12.4234   11.1328   -2.0820 C   0  0  1  0  0  0  0  0  0  0  0  0
   13.3511   12.1489   -2.7694 C   0  0  0  0  0  0  0  0  0  0  0  0
   13.1100   13.5188   -2.1006 C   0  0  0  0  0  0  0  0  0  0  0  0
   11.6291   13.9705   -2.1017 C   0  0  2  0  0  0  0  0  0  0  0  0
   11.3597   15.1052   -1.1718 O   0  0  0  0  0  0  0  0  0  0  0  0
   11.4187   14.9686    0.1979 C   0  0  0  0  0  0  0  0  0  0  0  0
   11.6577   13.9216    0.7692 O   0  0  0  0  0  0  0  0  0  0  0  0
   11.2050   16.2723    0.9769 C   0  0  0  0  0  0  0  0  0  0  0  0
   11.3638   16.2630    2.3861 C   0  0  0  0  0  0  0  0  0  0  0  0
   11.2612   17.4397    3.1568 C   0  0  0  0  0  0  0  0  0  0  0  0
   11.2852   17.4786    4.5277 O   0  0  0  0  0  0  0  0  0  0  0  0
   11.6557   16.3288    5.2613 C   0  0  0  0  0  0  0  0  0  0  0  0
   11.0302   18.6802    2.5339 C   0  0  0  0  0  0  0  0  0  0  0  0
   11.0327   19.8802    3.2134 O   0  0  0  0  0  0  0  0  0  0  0  0
   12.0536   20.0853    4.1950 C   0  0  0  0  0  0  0  0  0  0  0  0
   10.7105   18.6861    1.1634 C   0  0  0  0  0  0  0  0  0  0  0  0
   10.2844   19.7667    0.4256 O   0  0  0  0  0  0  0  0  0  0  0  0
    9.7140   20.8856    1.1075 C   0  0  0  0  0  0  0  0  0  0  0  0
   10.8335   17.4939    0.3939 C   0  0  0  0  0  0  0  0  0  0  0  0
   10.5706   12.8302   -2.0443 C   0  0  0  0  0  0  0  0  0  0  0  0
   11.0111   11.4456   -2.6163 C   0  0  0  0  0  0  0  0  0  0  0  0
   14.2814   10.5301    0.0698 C   0  0  0  0  0  0  0  0  0  0  0  0
   13.2147   10.3131    1.1353 C   0  0  0  0  0  0  0  0  0  0  0  0
    7.3201    6.4564    3.1871 C   0  0  0  0  0  0  0  0  0  0  0  0
    5.9252    6.3140    3.2722 C   0  0  0  0  0  0  0  0  0  0  0  0
    5.5914    5.0568    3.7133 O   0  0  0  0  0  0  0  0  0  0  0  0
    4.2278    4.6993    3.8591 C   0  0  0  0  0  0  0  0  0  0  0  0
    5.0793    7.3811    2.8917 C   0  0  0  0  0  0  0  0  0  0  0  0
    3.7333    7.1555    3.0102 O   0  0  0  0  0  0  0  0  0  0  0  0
    2.7988    8.0515    2.4321 C   0  0  0  0  0  0  0  0  0  0  0  0
    4.5788   10.5386    0.1968 H   0  0  0  0  0  0  0  0  0  0  0  0
    6.1829    9.8257    0.3220 H   0  0  0  0  0  0  0  0  0  0  0  0
    5.7880   11.3194    1.2355 H   0  0  0  0  0  0  0  0  0  0  0  0
    7.5306    9.6657    2.1640 H   0  0  0  0  0  0  0  0  0  0  0  0
    9.5532    8.3697    1.6710 H   0  0  0  0  0  0  0  0  0  0  0  0
    9.8031    6.7721    2.3213 H   0  0  0  0  0  0  0  0  0  0  0  0
    9.9991    7.7030    4.6416 H   0  0  0  0  0  0  0  0  0  0  0  0
    9.7610    9.3469    4.0119 H   0  0  0  0  0  0  0  0  0  0  0  0
   13.9305    8.7426    2.4198 H   0  0  0  0  0  0  0  0  0  0  0  0
   12.3578    7.5774    0.1085 H   0  0  0  0  0  0  0  0  0  0  0  0
   13.6505    6.8814    1.0457 H   0  0  0  0  0  0  0  0  0  0  0  0
   14.2898    7.3816   -1.3194 H   0  0  0  0  0  0  0  0  0  0  0  0
   15.3389    8.0958   -0.1279 H   0  0  0  0  0  0  0  0  0  0  0  0
   14.9900    9.7718   -1.8005 H   0  0  0  0  0  0  0  0  0  0  0  0
   13.2114    7.9526   -3.0845 H   0  0  0  0  0  0  0  0  0  0  0  0
   13.8402    9.4109   -3.8543 H   0  0  0  0  0  0  0  0  0  0  0  0
   12.0963    9.0592   -3.8334 H   0  0  0  0  0  0  0  0  0  0  0  0
   12.3196   11.4409   -1.0463 H   0  0  0  0  0  0  0  0  0  0  0  0
   13.1424   12.2055   -3.8480 H   0  0  0  0  0  0  0  0  0  0  0  0
   14.4066   11.8733   -2.6834 H   0  0  0  0  0  0  0  0  0  0  0  0
   13.7266   14.2741   -2.6020 H   0  0  0  0  0  0  0  0  0  0  0  0
   13.4865   13.4786   -1.0740 H   0  0  0  0  0  0  0  0  0  0  0  0
   11.4877   14.4347   -3.0871 H   0  0  0  0  0  0  0  0  0  0  0  0
   11.5534   15.3075    2.8733 H   0  0  0  0  0  0  0  0  0  0  0  0
   11.7789   16.6399    6.3053 H   0  0  0  0  0  0  0  0  0  0  0  0
   12.6146   15.9321    4.9193 H   0  0  0  0  0  0  0  0  0  0  0  0
   10.8650   15.5741    5.2296 H   0  0  0  0  0  0  0  0  0  0  0  0
   12.0971   21.1589    4.4136 H   0  0  0  0  0  0  0  0  0  0  0  0
   13.0421   19.7795    3.8362 H   0  0  0  0  0  0  0  0  0  0  0  0
   11.8097   19.6031    5.1456 H   0  0  0  0  0  0  0  0  0  0  0  0
    8.9473   21.3198    0.4575 H   0  0  0  0  0  0  0  0  0  0  0  0
   10.4808   21.6511    1.2695 H   0  0  0  0  0  0  0  0  0  0  0  0
    9.2030   20.6338    2.0428 H   0  0  0  0  0  0  0  0  0  0  0  0
   10.6145   17.5415   -0.6713 H   0  0  0  0  0  0  0  0  0  0  0  0
    9.6711   13.1618   -2.5786 H   0  0  0  0  0  0  0  0  0  0  0  0
   10.2483   12.6791   -1.0094 H   0  0  0  0  0  0  0  0  0  0  0  0
   10.9927   11.4636   -3.7150 H   0  0  0  0  0  0  0  0  0  0  0  0
   10.2893   10.6812   -2.3053 H   0  0  0  0  0  0  0  0  0  0  0  0
   14.2894   11.5758   -0.2444 H   0  0  0  0  0  0  0  0  0  0  0  0
   15.2703   10.3769    0.5213 H   0  0  0  0  0  0  0  0  0  0  0  0
   12.2220   10.6006    0.7747 H   0  0  0  0  0  0  0  0  0  0  0  0
   13.4048   10.9909    1.9786 H   0  0  0  0  0  0  0  0  0  0  0  0
    7.9496    5.6051    3.4418 H   0  0  0  0  0  0  0  0  0  0  0  0
    4.1979    3.6561    4.1904 H   0  0  0  0  0  0  0  0  0  0  0  0
    3.6954    4.7440    2.9042 H   0  0  0  0  0  0  0  0  0  0  0  0
    3.7429    5.2986    4.6354 H   0  0  0  0  0  0  0  0  0  0  0  0
    1.8014    7.6266    2.5859 H   0  0  0  0  0  0  0  0  0  0  0  0
    2.9487    8.1418    1.3516 H   0  0  0  0  0  0  0  0  0  0  0  0
    2.8064    9.0218    2.9366 H   0  0  0  0  0  0  0  0  0  0  0  0
  1  2  1  0  0  0  0
  1 47  1  0  0  0  0
  1 48  1  0  0  0  0
  1 49  1  0  0  0  0
  2  3  1  0  0  0  0
  3  4  1  0  0  0  0
  3 44  2  0  0  0  0
  4  5  2  0  0  0  0
  4 50  1  0  0  0  0
  5  6  1  0  0  0  0
  5 40  1  0  0  0  0
  6  7  1  0  0  0  0
  6 51  1  0  0  0  0
  6 52  1  0  0  0  0
  7  8  1  0  0  0  0
  7 53  1  0  0  0  0
  7 54  1  0  0  0  0
  8  9  2  0  0  0  0
  8 10  1  0  0  0  0
 11 12  1  0  0  0  0
 11 39  1  0  0  0  0
 11 10  1  0  0  0  0
 11 55  1  1  0  0  0
 12 13  1  0  0  0  0
 12 56  1  0  0  0  0
 12 57  1  0  0  0  0
 13 14  1  0  0  0  0
 13 58  1  0  0  0  0
 13 59  1  0  0  0  0
 14 15  1  0  0  0  0
 14 38  1  0  0  0  0
 14 60  1  6  0  0  0
 15 16  1  0  0  0  0
 16 61  1  0  0  0  0
 16 62  1  0  0  0  0
 16 63  1  0  0  0  0
 17 18  1  0  0  0  0
 17 37  1  0  0  0  0
 17 15  1  0  0  0  0
 17 64  1  1  0  0  0
 18 19  1  0  0  0  0
 18 65  1  0  0  0  0
 18 66  1  0  0  0  0
 19 20  1  0  0  0  0
 19 67  1  0  0  0  0
 19 68  1  0  0  0  0
 20 36  1  0  0  0  0
 20 21  1  0  0  0  0
 20 69  1  6  0  0  0
 21 22  1  0  0  0  0
 22 23  2  0  0  0  0
 22 24  1  0  0  0  0
 24 25  1  0  0  0  0
 24 35  2  0  0  0  0
 25 26  2  0  0  0  0
 25 70  1  0  0  0  0
 26 27  1  0  0  0  0
 26 29  1  0  0  0  0
 27 28  1  0  0  0  0
 28 71  1  0  0  0  0
 28 72  1  0  0  0  0
 28 73  1  0  0  0  0
 29 30  1  0  0  0  0
 29 32  2  0  0  0  0
 30 31  1  0  0  0  0
 31 74  1  0  0  0  0
 31 75  1  0  0  0  0
 31 76  1  0  0  0  0
 32 33  1  0  0  0  0
 32 35  1  0  0  0  0
 33 34  1  0  0  0  0
 34 77  1  0  0  0  0
 34 78  1  0  0  0  0
 34 79  1  0  0  0  0
 35 80  1  0  0  0  0
 36 37  1  0  0  0  0
 36 81  1  0  0  0  0
 36 82  1  0  0  0  0
 37 83  1  0  0  0  0
 37 84  1  0  0  0  0
 38 39  1  0  0  0  0
 38 85  1  0  0  0  0
 38 86  1  0  0  0  0
 39 87  1  0  0  0  0
 39 88  1  0  0  0  0
 40 41  2  0  0  0  0
 40 89  1  0  0  0  0
 41 42  1  0  0  0  0
 41 44  1  0  0  0  0
 42 43  1  0  0  0  0
 43 90  1  0  0  0  0
 43 91  1  0  0  0  0
 43 92  1  0  0  0  0
 44 45  1  0  0  0  0
 45 46  1  0  0  0  0
 46 93  1  0  0  0  0
 46 94  1  0  0  0  0
 46 95  1  0  0  0  0
M  END
>  <Energy>
162.394

$$$$