57385273
  -OEChem-03242010103D

 66 69  0     1  0  0  0  0  0999 V2000
    5.2709   -3.1936    0.8065 S   0  0  0  0  0  0  0  0  0  0  0  0
   -3.0634   -4.0247    0.5266 O   0  0  0  0  0  0  0  0  0  0  0  0
   -2.9921   -1.4619   -0.5498 O   0  0  0  0  0  0  0  0  0  0  0  0
   -0.8453    1.1514   -0.2530 O   0  0  0  0  0  0  0  0  0  0  0  0
    0.2759   -2.4189    0.3793 N   0  0  0  0  0  0  0  0  0  0  0  0
    3.0651   -1.8667    0.2610 N   0  0  0  0  0  0  0  0  0  0  0  0
    5.0035   -0.5692    0.6191 N   0  0  0  0  0  0  0  0  0  0  0  0
    1.2329   -3.4955    0.0751 C   0  0  0  0  0  0  0  0  0  0  0  0
    0.8764   -1.4342    1.2941 C   0  0  0  0  0  0  0  0  0  0  0  0
    2.5037   -2.9302   -0.5592 C   0  0  0  0  0  0  0  0  0  0  0  0
    2.1399   -0.8261    0.6851 C   0  0  0  0  0  0  0  0  0  0  0  0
   -0.9508   -2.9706    0.9535 C   0  0  0  0  0  0  0  0  0  0  0  0
   -1.8797   -3.5458   -0.1183 C   0  0  2  0  0  0  0  0  0  0  0  0
    4.3929   -1.7924    0.5239 C   0  0  0  0  0  0  0  0  0  0  0  0
   -2.2836   -2.5248   -1.1797 C   0  0  0  0  0  0  0  0  0  0  0  0
    4.7169    0.6675   -0.0081 C   0  0  0  0  0  0  0  0  0  0  0  0
   -3.4192   -0.4430   -1.3587 C   0  0  0  0  0  0  0  0  0  0  0  0
   -2.9865    0.8664   -1.1496 C   0  0  0  0  0  0  0  0  0  0  0  0
    4.1144    0.6883   -1.2659 C   0  0  0  0  0  0  0  0  0  0  0  0
    5.0368    1.8650    0.6321 C   0  0  0  0  0  0  0  0  0  0  0  0
   -4.2967   -0.7290   -2.4045 C   0  0  0  0  0  0  0  0  0  0  0  0
    3.8318    1.9064   -1.8838 C   0  0  0  0  0  0  0  0  0  0  0  0
    4.7541    3.0831    0.0141 C   0  0  0  0  0  0  0  0  0  0  0  0
    4.1517    3.1038   -1.2439 C   0  0  0  0  0  0  0  0  0  0  0  0
   -3.4312    1.8899   -1.9865 C   0  0  0  0  0  0  0  0  0  0  0  0
   -2.0693    1.1864   -0.0646 C   0  0  0  0  0  0  0  0  0  0  0  0
   -4.7416    0.2945   -3.2415 C   0  0  0  0  0  0  0  0  0  0  0  0
   -4.3087    1.6039   -3.0324 C   0  0  0  0  0  0  0  0  0  0  0  0
   -2.5458    1.5644    1.2989 C   0  0  0  0  0  0  0  0  0  0  0  0
    3.8496    4.4062   -1.9045 C   0  0  0  0  0  0  0  0  0  0  0  0
   -1.6241    1.8616    2.3027 C   0  0  0  0  0  0  0  0  0  0  0  0
   -3.9131    1.6218    1.5684 C   0  0  0  0  0  0  0  0  0  0  0  0
   -2.0696    2.2162    3.5761 C   0  0  0  0  0  0  0  0  0  0  0  0
   -4.3587    1.9764    2.8417 C   0  0  0  0  0  0  0  0  0  0  0  0
   -3.4370    2.2736    3.8456 C   0  0  0  0  0  0  0  0  0  0  0  0
    0.7996   -4.2124   -0.6305 H   0  0  0  0  0  0  0  0  0  0  0  0
    1.4964   -4.0477    0.9870 H   0  0  0  0  0  0  0  0  0  0  0  0
    1.1245   -1.9090    2.2530 H   0  0  0  0  0  0  0  0  0  0  0  0
    0.1686   -0.6261    1.5043 H   0  0  0  0  0  0  0  0  0  0  0  0
    2.2549   -2.4732   -1.5265 H   0  0  0  0  0  0  0  0  0  0  0  0
    3.2039   -3.7376   -0.7846 H   0  0  0  0  0  0  0  0  0  0  0  0
    2.5973   -0.1649    1.4275 H   0  0  0  0  0  0  0  0  0  0  0  0
    1.8592   -0.2355   -0.1932 H   0  0  0  0  0  0  0  0  0  0  0  0
   -0.7401   -3.7282    1.7207 H   0  0  0  0  0  0  0  0  0  0  0  0
   -1.5058   -2.1859    1.4869 H   0  0  0  0  0  0  0  0  0  0  0  0
   -1.4180   -4.4101   -0.6057 H   0  0  0  0  0  0  0  0  0  0  0  0
   -2.9399   -3.0266   -1.9000 H   0  0  0  0  0  0  0  0  0  0  0  0
   -1.4101   -2.1343   -1.7145 H   0  0  0  0  0  0  0  0  0  0  0  0
   -3.5189   -3.2591    0.9170 H   0  0  0  0  0  0  0  0  0  0  0  0
    5.8089   -0.5395    1.2407 H   0  0  0  0  0  0  0  0  0  0  0  0
    3.8798   -0.2288   -1.7993 H   0  0  0  0  0  0  0  0  0  0  0  0
    5.5055    1.8612    1.6128 H   0  0  0  0  0  0  0  0  0  0  0  0
   -4.6611   -1.7383   -2.5733 H   0  0  0  0  0  0  0  0  0  0  0  0
    3.3689    1.9095   -2.8671 H   0  0  0  0  0  0  0  0  0  0  0  0
    5.0093    4.0093    0.5222 H   0  0  0  0  0  0  0  0  0  0  0  0
   -3.1010    2.9142   -1.8340 H   0  0  0  0  0  0  0  0  0  0  0  0
   -5.4284    0.0728   -4.0532 H   0  0  0  0  0  0  0  0  0  0  0  0
   -4.6558    2.4010   -3.6833 H   0  0  0  0  0  0  0  0  0  0  0  0
    3.6405    5.1859   -1.1641 H   0  0  0  0  0  0  0  0  0  0  0  0
    2.9649    4.3282   -2.5455 H   0  0  0  0  0  0  0  0  0  0  0  0
    4.6997    4.7229   -2.5169 H   0  0  0  0  0  0  0  0  0  0  0  0
   -0.5536    1.8264    2.1193 H   0  0  0  0  0  0  0  0  0  0  0  0
   -4.6617    1.3974    0.8147 H   0  0  0  0  0  0  0  0  0  0  0  0
   -1.3520    2.4480    4.3578 H   0  0  0  0  0  0  0  0  0  0  0  0
   -5.4234    2.0211    3.0521 H   0  0  0  0  0  0  0  0  0  0  0  0
   -3.7840    2.5497    4.8370 H   0  0  0  0  0  0  0  0  0  0  0  0
  1 14  2  0  0  0  0
  2 13  1  0  0  0  0
  2 49  1  0  0  0  0
  3 15  1  0  0  0  0
  3 17  1  0  0  0  0
  4 26  2  0  0  0  0
  5  8  1  0  0  0  0
  5  9  1  0  0  0  0
  5 12  1  0  0  0  0
  6 10  1  0  0  0  0
  6 11  1  0  0  0  0
  6 14  1  0  0  0  0
  7 14  1  0  0  0  0
  7 16  1  0  0  0  0
  7 50  1  0  0  0  0
  8 10  1  0  0  0  0
  8 36  1  0  0  0  0
  8 37  1  0  0  0  0
  9 11  1  0  0  0  0
  9 38  1  0  0  0  0
  9 39  1  0  0  0  0
 10 40  1  0  0  0  0
 10 41  1  0  0  0  0
 11 42  1  0  0  0  0
 11 43  1  0  0  0  0
 12 13  1  0  0  0  0
 12 44  1  0  0  0  0
 12 45  1  0  0  0  0
 13 15  1  0  0  0  0
 13 46  1  0  0  0  0
 15 47  1  0  0  0  0
 15 48  1  0  0  0  0
 16 19  2  0  0  0  0
 16 20  1  0  0  0  0
 17 18  1  0  0  0  0
 17 21  2  0  0  0  0
 18 25  2  0  0  0  0
 18 26  1  0  0  0  0
 19 22  1  0  0  0  0
 19 51  1  0  0  0  0
 20 23  2  0  0  0  0
 20 52  1  0  0  0  0
 21 27  1  0  0  0  0
 21 53  1  0  0  0  0
 22 24  2  0  0  0  0
 22 54  1  0  0  0  0
 23 24  1  0  0  0  0
 23 55  1  0  0  0  0
 24 30  1  0  0  0  0
 25 28  1  0  0  0  0
 25 56  1  0  0  0  0
 26 29  1  0  0  0  0
 27 28  2  0  0  0  0
 27 57  1  0  0  0  0
 28 58  1  0  0  0  0
 29 31  2  0  0  0  0
 29 32  1  0  0  0  0
 30 59  1  0  0  0  0
 30 60  1  0  0  0  0
 30 61  1  0  0  0  0
 31 33  1  0  0  0  0
 31 62  1  0  0  0  0
 32 34  2  0  0  0  0
 32 63  1  0  0  0  0
 33 35  2  0  0  0  0
 33 64  1  0  0  0  0
 34 35  1  0  0  0  0
 34 65  1  0  0  0  0
 35 66  1  0  0  0  0
M  END
> <PUBCHEM_COMPOUND_CID>
57385273

> <PUBCHEM_CONFORMER_RMSD>
1.6

> <PUBCHEM_CONFORMER_DIVERSEORDER>
2
43
30
23
53
59
71
47
24
50
84
46
39
51
82
79
83
38
87
28
54
70
6
62
64
81
77
22
63
34
18
66
78
57
52
86
41
1
89
27
12
72
37
14
55
33
88
65
73
7
29
42
49
67
20
76
69
19
75
45
13
85
90
40
44
74
68
8
60
56
21
16
36
31
32
61
58
35
15
48
17
25
26
11
9
80
10
3
5
4

> <PUBCHEM_MMFF94_PARTIAL_CHARGES>
50
1 -0.38
10 0.3
11 0.3
12 0.27
13 0.28
14 0.5
15 0.28
16 0.12
17 0.08
18 0.09
19 -0.15
2 -0.68
20 -0.15
21 -0.15
22 -0.15
23 -0.15
24 -0.14
25 -0.15
26 0.4
27 -0.15
28 -0.15
29 0.09
3 -0.36
30 0.14
31 -0.15
32 -0.15
33 -0.15
34 -0.15
35 -0.15
4 -0.57
49 0.4
5 -0.81
50 0.37
51 0.15
52 0.15
53 0.15
54 0.15
55 0.15
56 0.15
57 0.15
58 0.15
6 -0.66
62 0.15
63 0.15
64 0.15
65 0.15
66 0.15
7 -0.55
8 0.27
9 0.27

> <PUBCHEM_EFFECTIVE_ROTOR_COUNT>
11.2

> <PUBCHEM_PHARMACOPHORE_FEATURES>
11
1 1 acceptor
1 2 acceptor
1 2 donor
1 3 acceptor
1 4 acceptor
1 5 cation
1 7 donor
6 16 19 20 22 23 24 rings
6 17 18 21 25 27 28 rings
6 29 31 32 33 34 35 rings
6 5 6 8 9 10 11 rings

> <PUBCHEM_HEAVY_ATOM_COUNT>
35

> <PUBCHEM_ATOM_DEF_STEREO_COUNT>
0

> <PUBCHEM_ATOM_UDEF_STEREO_COUNT>
1

> <PUBCHEM_BOND_DEF_STEREO_COUNT>
0

> <PUBCHEM_BOND_UDEF_STEREO_COUNT>
0

> <PUBCHEM_ISOTOPIC_ATOM_COUNT>
0

> <PUBCHEM_COMPONENT_COUNT>
1

> <PUBCHEM_CACTVS_TAUTO_COUNT>
2

> <PUBCHEM_CONFORMER_ID>
036BA13900000002

> <PUBCHEM_MMFF94_ENERGY>
128.9018

> <PUBCHEM_FEATURE_SELFOVERLAP>
55.827

> <PUBCHEM_SHAPE_FINGERPRINT>
10462674 125 13266094490822710088
10673678 19 18118670047075047069
11582403 64 16517345718659634703
12788726 201 17704072893799911897
13111901 51 18336541715744366060
13583140 156 17241048687040466706
14289585 56 17115524943536565894
14395042 70 15117375986043157787
14556957 393 17703208643269515725
14932702 115 18195515111485906165
15361156 5 16950277421543544596
15419009 47 16841375016854269686
15968369 153 17346318249750353051
16067690 210 17275389784976537041
19319366 153 17771072592421270363
20764821 26 18272375304079637704
21033648 144 18334858329472184566
21033648 29 16950283971141199442
21049683 271 17471575898493073723
21133410 221 15755971729539356816
21458453 9 17755344233209707595
3493558 16 17970337329467802078
3610482 184 17846226497059850826
4173938 77 17763469413643954077
469060 322 17389121219459694699
46939830 39 12697403544589608893
50150288 127 17413630364097662201
508180 173 17609196980015688228
5252454 2 18044125494931345748
6086070 43 17823125753661197154
6523845 18 18043559168769704486
6609424 69 16826749205085645984

> <PUBCHEM_SHAPE_MULTIPOLES>
691.58
12.64
5.54
3.44
8.91
1.95
-1.17
-5.34
2.98
4.22
-0.16
-6.82
-3.59
-4.43

> <PUBCHEM_SHAPE_SELFOVERLAP>
1467.146

> <PUBCHEM_SHAPE_VOLUME>
387.6

> <PUBCHEM_COORDINATE_TYPE>
2
5
10

$$$$