57385271
  -OEChem-03242010103D

 62 65  0     1  0  0  0  0  0999 V2000
   -5.3610    3.1349   -0.3901 O   0  0  0  0  0  0  0  0  0  0  0  0
   -3.4675    0.3254    0.8759 O   0  0  0  0  0  0  0  0  0  0  0  0
    0.1079   -3.7491    1.9123 O   0  0  0  0  0  0  0  0  0  0  0  0
   -1.7504    2.2895   -0.3762 N   0  0  0  0  0  0  0  0  0  0  0  0
    1.0583    2.1135    0.1133 N   0  0  0  0  0  0  0  0  0  0  0  0
   -1.1537    2.9674    0.7811 C   0  0  0  0  0  0  0  0  0  0  0  0
   -0.8007    2.2837   -1.4958 C   0  0  0  0  0  0  0  0  0  0  0  0
    0.1252    2.2590    1.2348 C   0  0  0  0  0  0  0  0  0  0  0  0
    0.4890    1.5517   -1.1181 C   0  0  0  0  0  0  0  0  0  0  0  0
   -2.9991    2.9432   -0.7662 C   0  0  0  0  0  0  0  0  0  0  0  0
   -4.1829    2.4764    0.0842 C   0  0  2  0  0  0  0  0  0  0  0  0
    2.4184    1.9018    0.3650 C   0  0  0  0  0  0  0  0  0  0  0  0
   -4.4122    0.9677    0.0254 C   0  0  0  0  0  0  0  0  0  0  0  0
    3.3783    2.8025   -0.0962 C   0  0  0  0  0  0  0  0  0  0  0  0
    2.8099    0.7740    1.0865 C   0  0  0  0  0  0  0  0  0  0  0  0
    4.7297    2.5755    0.1639 C   0  0  0  0  0  0  0  0  0  0  0  0
    2.9864    4.0188   -0.8704 C   0  0  0  0  0  0  0  0  0  0  0  0
    4.1614    0.5468    1.3467 C   0  0  0  0  0  0  0  0  0  0  0  0
    5.1213    1.4477    0.8854 C   0  0  0  0  0  0  0  0  0  0  0  0
   -3.0861   -0.9421    0.5250 C   0  0  0  0  0  0  0  0  0  0  0  0
   -1.8102   -1.4021    0.8504 C   0  0  0  0  0  0  0  0  0  0  0  0
   -3.9741   -1.7733   -0.1576 C   0  0  0  0  0  0  0  0  0  0  0  0
   -1.4223   -2.6933    0.4931 C   0  0  0  0  0  0  0  0  0  0  0  0
   -3.5862   -3.0646   -0.5150 C   0  0  0  0  0  0  0  0  0  0  0  0
   -2.3102   -3.5247   -0.1896 C   0  0  0  0  0  0  0  0  0  0  0  0
   -0.0919   -3.1731    0.8326 C   0  0  0  0  0  0  0  0  0  0  0  0
    1.0785   -3.0017   -0.0802 C   0  0  0  0  0  0  0  0  0  0  0  0
    2.3330   -3.4817    0.2959 C   0  0  0  0  0  0  0  0  0  0  0  0
    0.9159   -2.3629   -1.3095 C   0  0  0  0  0  0  0  0  0  0  0  0
    3.4251   -3.3228   -0.5573 C   0  0  0  0  0  0  0  0  0  0  0  0
    2.0079   -2.2041   -2.1627 C   0  0  0  0  0  0  0  0  0  0  0  0
    3.2626   -2.6840   -1.7865 C   0  0  0  0  0  0  0  0  0  0  0  0
   -0.5646    3.3097   -1.8089 H   0  0  0  0  0  0  0  0  0  0  0  0
   -1.8480    2.9750    1.6286 H   0  0  0  0  0  0  0  0  0  0  0  0
   -0.9221    4.0140    0.5408 H   0  0  0  0  0  0  0  0  0  0  0  0
   -1.2383    1.7690   -2.3599 H   0  0  0  0  0  0  0  0  0  0  0  0
    1.1988    1.6333   -1.9500 H   0  0  0  0  0  0  0  0  0  0  0  0
    0.2821    0.4868   -0.9655 H   0  0  0  0  0  0  0  0  0  0  0  0
   -0.1139    1.2757    1.6537 H   0  0  0  0  0  0  0  0  0  0  0  0
    0.5866    2.8523    2.0340 H   0  0  0  0  0  0  0  0  0  0  0  0
   -2.9181    4.0386   -0.7443 H   0  0  0  0  0  0  0  0  0  0  0  0
   -3.2409    2.7038   -1.8117 H   0  0  0  0  0  0  0  0  0  0  0  0
   -4.0461    2.7905    1.1246 H   0  0  0  0  0  0  0  0  0  0  0  0
   -4.3356    0.6418   -1.0208 H   0  0  0  0  0  0  0  0  0  0  0  0
   -5.4227    0.7328    0.3817 H   0  0  0  0  0  0  0  0  0  0  0  0
    2.0765    0.0573    1.4474 H   0  0  0  0  0  0  0  0  0  0  0  0
   -5.5194    2.8412   -1.3036 H   0  0  0  0  0  0  0  0  0  0  0  0
    5.4907    3.2664   -0.1893 H   0  0  0  0  0  0  0  0  0  0  0  0
    2.6176    3.7382   -1.8620 H   0  0  0  0  0  0  0  0  0  0  0  0
    2.2102    4.5827   -0.3421 H   0  0  0  0  0  0  0  0  0  0  0  0
    3.8331    4.6995   -1.0118 H   0  0  0  0  0  0  0  0  0  0  0  0
    4.4662   -0.3329    1.9058 H   0  0  0  0  0  0  0  0  0  0  0  0
    6.1736    1.2701    1.0871 H   0  0  0  0  0  0  0  0  0  0  0  0
   -1.1233   -0.7558    1.3882 H   0  0  0  0  0  0  0  0  0  0  0  0
   -4.9859   -1.4657   -0.4040 H   0  0  0  0  0  0  0  0  0  0  0  0
   -4.2796   -3.7146   -1.0406 H   0  0  0  0  0  0  0  0  0  0  0  0
   -2.0193   -4.5334   -0.4716 H   0  0  0  0  0  0  0  0  0  0  0  0
    2.4874   -3.9823    1.2478 H   0  0  0  0  0  0  0  0  0  0  0  0
   -0.0443   -1.9782   -1.6392 H   0  0  0  0  0  0  0  0  0  0  0  0
    4.4023   -3.6954   -0.2643 H   0  0  0  0  0  0  0  0  0  0  0  0
    1.8818   -1.7058   -3.1195 H   0  0  0  0  0  0  0  0  0  0  0  0
    4.1130   -2.5593   -2.4504 H   0  0  0  0  0  0  0  0  0  0  0  0
  1 11  1  0  0  0  0
  1 47  1  0  0  0  0
  2 13  1  0  0  0  0
  2 20  1  0  0  0  0
  3 26  2  0  0  0  0
  4  6  1  0  0  0  0
  4  7  1  0  0  0  0
  4 10  1  0  0  0  0
  5  8  1  0  0  0  0
  5  9  1  0  0  0  0
  5 12  1  0  0  0  0
  6  8  1  0  0  0  0
  6 34  1  0  0  0  0
  6 35  1  0  0  0  0
  7  9  1  0  0  0  0
  7 33  1  0  0  0  0
  7 36  1  0  0  0  0
  8 39  1  0  0  0  0
  8 40  1  0  0  0  0
  9 37  1  0  0  0  0
  9 38  1  0  0  0  0
 10 11  1  0  0  0  0
 10 41  1  0  0  0  0
 10 42  1  0  0  0  0
 11 13  1  0  0  0  0
 11 43  1  0  0  0  0
 12 14  1  0  0  0  0
 12 15  2  0  0  0  0
 13 44  1  0  0  0  0
 13 45  1  0  0  0  0
 14 16  2  0  0  0  0
 14 17  1  0  0  0  0
 15 18  1  0  0  0  0
 15 46  1  0  0  0  0
 16 19  1  0  0  0  0
 16 48  1  0  0  0  0
 17 49  1  0  0  0  0
 17 50  1  0  0  0  0
 17 51  1  0  0  0  0
 18 19  2  0  0  0  0
 18 52  1  0  0  0  0
 19 53  1  0  0  0  0
 20 21  1  0  0  0  0
 20 22  2  0  0  0  0
 21 23  2  0  0  0  0
 21 54  1  0  0  0  0
 22 24  1  0  0  0  0
 22 55  1  0  0  0  0
 23 25  1  0  0  0  0
 23 26  1  0  0  0  0
 24 25  2  0  0  0  0
 24 56  1  0  0  0  0
 25 57  1  0  0  0  0
 26 27  1  0  0  0  0
 27 28  2  0  0  0  0
 27 29  1  0  0  0  0
 28 30  1  0  0  0  0
 28 58  1  0  0  0  0
 29 31  2  0  0  0  0
 29 59  1  0  0  0  0
 30 32  2  0  0  0  0
 30 60  1  0  0  0  0
 31 32  1  0  0  0  0
 31 61  1  0  0  0  0
 32 62  1  0  0  0  0
M  END
> <PUBCHEM_COMPOUND_CID>
57385271

> <PUBCHEM_CONFORMER_RMSD>
1.4

> <PUBCHEM_CONFORMER_DIVERSEORDER>
1
33
79
99
64
29
101
78
57
22
97
88
76
26
73
12
13
74
49
91
75
105
59
71
18
55
92
23
70
39
8
37
40
32
102
83
16
53
95
63
67
81
17
82
46
106
65
52
85
100
2
7
68
69
34
87
93
58
90
44
50
54
20
107
31
98
15
72
4
61
11
21
86
47
80
25
35
77
41
10
96
27
62
42
30
19
94
45
48
66
89
104
84
5
14
103
60
6
51
24
36
56
43
3
38
9
28

> <PUBCHEM_MMFF94_PARTIAL_CHARGES>
46
1 -0.68
10 0.27
11 0.28
12 0.1
13 0.28
14 -0.14
15 -0.15
16 -0.15
17 0.14
18 -0.15
19 -0.15
2 -0.36
20 0.08
21 -0.15
22 -0.15
23 0.09
24 -0.15
25 -0.15
26 0.4
27 0.09
28 -0.15
29 -0.15
3 -0.57
30 -0.15
31 -0.15
32 -0.15
4 -0.81
46 0.15
47 0.4
48 0.15
5 -0.84
52 0.15
53 0.15
54 0.15
55 0.15
56 0.15
57 0.15
58 0.15
59 0.15
6 0.27
60 0.15
61 0.15
62 0.15
7 0.27
8 0.37
9 0.37

> <PUBCHEM_EFFECTIVE_ROTOR_COUNT>
9.2

> <PUBCHEM_PHARMACOPHORE_FEATURES>
10
1 1 acceptor
1 1 donor
1 2 acceptor
1 3 acceptor
1 4 cation
1 5 cation
6 12 14 15 16 18 19 rings
6 20 21 22 23 24 25 rings
6 27 28 29 30 31 32 rings
6 4 5 6 7 8 9 rings

> <PUBCHEM_HEAVY_ATOM_COUNT>
32

> <PUBCHEM_ATOM_DEF_STEREO_COUNT>
0

> <PUBCHEM_ATOM_UDEF_STEREO_COUNT>
1

> <PUBCHEM_BOND_DEF_STEREO_COUNT>
0

> <PUBCHEM_BOND_UDEF_STEREO_COUNT>
0

> <PUBCHEM_ISOTOPIC_ATOM_COUNT>
0

> <PUBCHEM_COMPONENT_COUNT>
1

> <PUBCHEM_CACTVS_TAUTO_COUNT>
1

> <PUBCHEM_CONFORMER_ID>
036BA13700000001

> <PUBCHEM_MMFF94_ENERGY>
114.2462

> <PUBCHEM_FEATURE_SELFOVERLAP>
50.75

> <PUBCHEM_SHAPE_FINGERPRINT>
10864689 126 17762903165244923902
1100329 8 18194965136691833663
11513181 2 18273494585036169254
12156800 1 18191608504170801028
12422481 6 18340470215535804658
12597179 24 18341604893622609236
12788726 201 18122625225710747633
13122387 1 16825027331168387507
14251757 5 17401500736952075492
14647877 51 18341615867744007358
14725015 67 18052249897511911995
14932702 115 17905373664356192270
15927050 60 18412542090207862637
15975801 100 17386854886004142758
16067689 134 16614487343225541377
17093844 170 18411704275163794792
20642791 35 18195247715722968363
20764821 26 18265332815902185538
20775438 99 18056176021822738023
21133410 38 18273221911317541211
23559900 14 18341897333909510172
238918 7 18200311151711011326
3027735 51 18270114750948275547
3298306 158 18343301491719776620
35225 105 17843118370645184108
4112364 45 17196891119723578105
4403749 210 18125984191538941376
508706 21 18339651156070670670
5171179 24 18343029874030913254
5265222 85 18193850459835904580

> <PUBCHEM_SHAPE_MULTIPOLES>
630.97
9.19
6.91
1.47
0.15
1.91
-0.29
-5.35
0.66
0.13
-0.91
-0.86
0.62
1.33

> <PUBCHEM_SHAPE_SELFOVERLAP>
1352.187

> <PUBCHEM_SHAPE_VOLUME>
348.9

> <PUBCHEM_COORDINATE_TYPE>
2
5
10

$$$$