15
 OpenBabel03292022253D

108111  0  0  1  0  0  0  0  0999 V2000
   10.4257   -2.2195    0.8991 C   0  0  0  0  0  0  0  0  0  0  0  0
   10.4453   -3.6319    1.1025 O   0  0  0  0  0  0  0  0  0  0  0  0
    9.2808   -4.1978    1.5459 C   0  0  0  0  0  0  0  0  0  0  0  0
    8.0324   -3.6867    1.1735 C   0  0  0  0  0  0  0  0  0  0  0  0
    6.8459   -4.2459    1.6571 C   0  0  0  0  0  0  0  0  0  0  0  0
    6.8626   -5.3665    2.5003 C   0  0  0  0  0  0  0  0  0  0  0  0
    5.5712   -5.9580    3.1121 C   0  0  3  0  0  0  0  0  0  0  0  0
    4.3568   -5.0966    2.8063 C   0  0  0  0  0  0  0  0  0  0  0  0
    3.3493   -4.3819    2.5526 N   0  0  0  0  0  0  0  0  0  0  0  0
    5.3020   -7.3874    2.5471 C   0  0  0  0  0  0  0  0  0  0  0  0
    5.2082   -7.4832    1.0161 C   0  0  0  0  0  0  0  0  0  0  0  0
    4.8236   -8.8856    0.5949 C   0  0  0  0  0  0  0  0  0  0  0  0
    3.9105   -9.5197    1.1074 O   0  0  0  0  0  0  0  0  0  0  0  0
    5.6002   -9.3118   -0.4469 O   0  0  0  0  0  0  0  0  0  0  0  0
    5.2080  -10.5783   -1.0002 C   0  0  1  0  0  0  0  0  0  0  0  0
    4.0652  -10.3762   -1.9911 C   0  0  0  0  0  0  0  0  0  0  0  0
    3.5666  -11.7435   -2.4374 C   0  0  0  0  0  0  0  0  0  0  0  0
    4.6410  -12.5371   -3.2316 C   0  0  1  0  0  0  0  0  0  0  0  0
    4.7855  -12.0315   -4.6359 N   0  0  0  0  0  0  0  0  0  0  0  0
    3.5102  -12.2267   -5.3596 C   0  0  0  0  0  0  0  0  0  0  0  0
    5.9308  -12.6170   -5.4004 C   0  0  1  0  0  0  0  0  0  0  0  0
    5.9499  -14.1602   -5.4467 C   0  0  0  0  0  0  0  0  0  0  0  0
    7.1712  -14.6748   -6.2103 C   0  0  0  0  0  0  0  0  0  0  0  0
    7.1578  -14.1862   -7.6594 C   0  0  1  0  0  0  0  0  0  0  0  0
    5.9514  -14.6234   -8.3256 O   0  0  0  0  0  0  0  0  0  0  0  0
    5.8979  -15.9441   -8.6477 C   0  0  0  0  0  0  0  0  0  0  0  0
    6.7891  -16.7656   -8.4793 O   0  0  0  0  0  0  0  0  0  0  0  0
    4.5745  -16.2413   -9.2147 C   0  0  0  0  0  0  0  0  0  0  0  0
    4.2633  -17.5052   -9.5473 C   0  0  0  0  0  0  0  0  0  0  0  0
    3.0141  -17.8379  -10.2350 C   0  0  0  0  0  0  0  0  0  0  0  0
    3.0158  -17.8795  -11.6290 C   0  0  0  0  0  0  0  0  0  0  0  0
    1.8475  -18.1790  -12.3328 C   0  0  0  0  0  0  0  0  0  0  0  0
    1.7936  -18.2304  -13.7062 O   0  0  0  0  0  0  0  0  0  0  0  0
    3.0268  -18.4787  -14.3733 C   0  0  0  0  0  0  0  0  0  0  0  0
    0.6431  -18.4173  -11.6314 C   0  0  0  0  0  0  0  0  0  0  0  0
   -0.4613  -18.6140  -12.4301 O   0  0  0  0  0  0  0  0  0  0  0  0
   -1.4508  -19.5223  -11.9647 C   0  0  0  0  0  0  0  0  0  0  0  0
    0.6358  -18.3659  -10.2200 C   0  0  0  0  0  0  0  0  0  0  0  0
   -0.5626  -18.5572   -9.5814 O   0  0  0  0  0  0  0  0  0  0  0  0
   -0.5957  -18.4772   -8.1628 C   0  0  0  0  0  0  0  0  0  0  0  0
    1.8311  -18.0901   -9.5352 C   0  0  0  0  0  0  0  0  0  0  0  0
    7.1943  -12.6546   -7.6687 C   0  0  0  0  0  0  0  0  0  0  0  0
    6.0641  -12.0319   -6.8388 C   0  0  0  0  0  0  0  0  0  0  0  0
    5.9308  -12.5860   -2.3534 C   0  0  0  0  0  0  0  0  0  0  0  0
    6.3716  -11.2510   -1.7347 C   0  0  0  0  0  0  0  0  0  0  0  0
    5.6962   -5.9966    4.7014 C   0  0  0  0  0  0  0  0  0  0  0  0
    5.9298   -4.6039    5.3244 C   0  0  0  0  0  0  0  0  0  0  0  0
    4.4904   -6.6349    5.4173 C   0  0  0  0  0  0  0  0  0  0  0  0
    8.1215   -5.9209    2.7982 C   0  0  0  0  0  0  0  0  0  0  0  0
    9.3265   -5.3432    2.3521 C   0  0  0  0  0  0  0  0  0  0  0  0
   10.4225   -6.0181    2.8222 O   0  0  0  0  0  0  0  0  0  0  0  0
   11.7125   -5.4540    2.6384 C   0  0  0  0  0  0  0  0  0  0  0  0
   11.4020   -1.8252    1.1970 H   0  0  0  0  0  0  0  0  0  0  0  0
    9.6733   -1.6986    1.5022 H   0  0  0  0  0  0  0  0  0  0  0  0
   10.2782   -2.0059   -0.1638 H   0  0  0  0  0  0  0  0  0  0  0  0
    7.9517   -2.8356    0.5025 H   0  0  0  0  0  0  0  0  0  0  0  0
    5.9170   -3.7627    1.3581 H   0  0  0  0  0  0  0  0  0  0  0  0
    4.3577   -7.7655    2.9593 H   0  0  0  0  0  0  0  0  0  0  0  0
    6.0794   -8.0809    2.8947 H   0  0  0  0  0  0  0  0  0  0  0  0
    6.1644   -7.2166    0.5543 H   0  0  0  0  0  0  0  0  0  0  0  0
    4.4426   -6.8105    0.6199 H   0  0  0  0  0  0  0  0  0  0  0  0
    4.8992  -11.2491   -0.1861 H   0  0  0  0  0  0  0  0  0  0  0  0
    4.4060   -9.7762   -2.8447 H   0  0  0  0  0  0  0  0  0  0  0  0
    3.2503   -9.8066   -1.5332 H   0  0  0  0  0  0  0  0  0  0  0  0
    2.6284  -11.6215   -2.9808 H   0  0  0  0  0  0  0  0  0  0  0  0
    3.2908  -12.3275   -1.5492 H   0  0  0  0  0  0  0  0  0  0  0  0
    4.2781  -13.5724   -3.2958 H   0  0  0  0  0  0  0  0  0  0  0  0
    2.6979  -11.6408   -4.9257 H   0  0  0  0  0  0  0  0  0  0  0  0
    3.2020  -13.2783   -5.3759 H   0  0  0  0  0  0  0  0  0  0  0  0
    3.5398  -11.8626   -6.3874 H   0  0  0  0  0  0  0  0  0  0  0  0
    6.8463  -12.2913   -4.8899 H   0  0  0  0  0  0  0  0  0  0  0  0
    5.0377  -14.5418   -5.9199 H   0  0  0  0  0  0  0  0  0  0  0  0
    5.9804  -14.5870   -4.4399 H   0  0  0  0  0  0  0  0  0  0  0  0
    7.1732  -15.7687   -6.1674 H   0  0  0  0  0  0  0  0  0  0  0  0
    8.0899  -14.3354   -5.7154 H   0  0  0  0  0  0  0  0  0  0  0  0
    8.0288  -14.5621   -8.2092 H   0  0  0  0  0  0  0  0  0  0  0  0
    3.8940  -15.4126   -9.3815 H   0  0  0  0  0  0  0  0  0  0  0  0
    4.9587  -18.3284   -9.3931 H   0  0  0  0  0  0  0  0  0  0  0  0
    3.9422  -17.6563  -12.1503 H   0  0  0  0  0  0  0  0  0  0  0  0
    2.8102  -18.6577  -15.4303 H   0  0  0  0  0  0  0  0  0  0  0  0
    3.5202  -19.3729  -13.9759 H   0  0  0  0  0  0  0  0  0  0  0  0
    3.6885  -17.6080  -14.3183 H   0  0  0  0  0  0  0  0  0  0  0  0
   -2.0562  -19.8208  -12.8271 H   0  0  0  0  0  0  0  0  0  0  0  0
   -2.1322  -19.0354  -11.2618 H   0  0  0  0  0  0  0  0  0  0  0  0
   -1.0106  -20.4302  -11.5390 H   0  0  0  0  0  0  0  0  0  0  0  0
   -1.6340  -18.6131   -7.8442 H   0  0  0  0  0  0  0  0  0  0  0  0
   -0.2697  -17.4927   -7.8126 H   0  0  0  0  0  0  0  0  0  0  0  0
   -0.0015  -19.2785   -7.7120 H   0  0  0  0  0  0  0  0  0  0  0  0
    1.8639  -18.0520   -8.4522 H   0  0  0  0  0  0  0  0  0  0  0  0
    7.1022  -12.2922   -8.7008 H   0  0  0  0  0  0  0  0  0  0  0  0
    8.1605  -12.3065   -7.2864 H   0  0  0  0  0  0  0  0  0  0  0  0
    5.1519  -12.1887   -7.4208 H   0  0  0  0  0  0  0  0  0  0  0  0
    6.2184  -10.9471   -6.7795 H   0  0  0  0  0  0  0  0  0  0  0  0
    6.7748  -13.0397   -2.8804 H   0  0  0  0  0  0  0  0  0  0  0  0
    5.7230  -13.2761   -1.5222 H   0  0  0  0  0  0  0  0  0  0  0  0
    6.7810  -10.5856   -2.5035 H   0  0  0  0  0  0  0  0  0  0  0  0
    7.1906  -11.4291   -1.0255 H   0  0  0  0  0  0  0  0  0  0  0  0
    6.5644   -6.6123    4.9685 H   0  0  0  0  0  0  0  0  0  0  0  0
    5.0623   -3.9487    5.1916 H   0  0  0  0  0  0  0  0  0  0  0  0
    6.8037   -4.1033    4.8985 H   0  0  0  0  0  0  0  0  0  0  0  0
    6.1062   -4.6938    6.4023 H   0  0  0  0  0  0  0  0  0  0  0  0
    3.5553   -6.1115    5.1937 H   0  0  0  0  0  0  0  0  0  0  0  0
    4.6287   -6.6013    6.5043 H   0  0  0  0  0  0  0  0  0  0  0  0
    4.3715   -7.6879    5.1482 H   0  0  0  0  0  0  0  0  0  0  0  0
    8.1953   -6.8103    3.4229 H   0  0  0  0  0  0  0  0  0  0  0  0
   12.4017   -5.9925    3.2973 H   0  0  0  0  0  0  0  0  0  0  0  0
   11.7559   -4.4025    2.9379 H   0  0  0  0  0  0  0  0  0  0  0  0
   12.0546   -5.6033    1.6098 H   0  0  0  0  0  0  0  0  0  0  0  0
  1  2  1  0  0  0  0
  1 53  1  0  0  0  0
  1 54  1  0  0  0  0
  1 55  1  0  0  0  0
  2  3  1  0  0  0  0
  3  4  1  0  0  0  0
  3 50  2  0  0  0  0
  4  5  2  0  0  0  0
  4 56  1  0  0  0  0
  5  6  1  0  0  0  0
  5 57  1  0  0  0  0
  6  7  1  0  0  0  0
  6 49  2  0  0  0  0
  7  8  1  0  0  0  0
  7 10  1  0  0  0  0
  7 46  1  0  0  0  0
  8  9  3  0  0  0  0
 10 11  1  0  0  0  0
 10 58  1  0  0  0  0
 10 59  1  0  0  0  0
 11 12  1  0  0  0  0
 11 60  1  0  0  0  0
 11 61  1  0  0  0  0
 12 13  2  0  0  0  0
 12 14  1  0  0  0  0
 15 16  1  0  0  0  0
 15 45  1  0  0  0  0
 15 14  1  0  0  0  0
 15 62  1  1  0  0  0
 16 17  1  0  0  0  0
 16 63  1  0  0  0  0
 16 64  1  0  0  0  0
 17 18  1  0  0  0  0
 17 65  1  0  0  0  0
 17 66  1  0  0  0  0
 18 19  1  0  0  0  0
 18 44  1  0  0  0  0
 18 67  1  6  0  0  0
 19 20  1  0  0  0  0
 20 68  1  0  0  0  0
 20 69  1  0  0  0  0
 20 70  1  0  0  0  0
 21 22  1  0  0  0  0
 21 43  1  0  0  0  0
 21 19  1  0  0  0  0
 21 71  1  1  0  0  0
 22 23  1  0  0  0  0
 22 72  1  0  0  0  0
 22 73  1  0  0  0  0
 23 24  1  0  0  0  0
 23 74  1  0  0  0  0
 23 75  1  0  0  0  0
 24 25  1  0  0  0  0
 24 42  1  0  0  0  0
 24 76  1  6  0  0  0
 25 26  1  0  0  0  0
 26 27  2  0  0  0  0
 26 28  1  0  0  0  0
 28 29  2  0  0  0  0
 28 77  1  0  0  0  0
 29 30  1  0  0  0  0
 29 78  1  0  0  0  0
 30 31  1  0  0  0  0
 30 41  2  0  0  0  0
 31 32  2  0  0  0  0
 31 79  1  0  0  0  0
 32 33  1  0  0  0  0
 32 35  1  0  0  0  0
 33 34  1  0  0  0  0
 34 80  1  0  0  0  0
 34 81  1  0  0  0  0
 34 82  1  0  0  0  0
 35 36  1  0  0  0  0
 35 38  2  0  0  0  0
 36 37  1  0  0  0  0
 37 83  1  0  0  0  0
 37 84  1  0  0  0  0
 37 85  1  0  0  0  0
 38 39  1  0  0  0  0
 38 41  1  0  0  0  0
 39 40  1  0  0  0  0
 40 86  1  0  0  0  0
 40 87  1  0  0  0  0
 40 88  1  0  0  0  0
 41 89  1  0  0  0  0
 42 43  1  0  0  0  0
 42 90  1  0  0  0  0
 42 91  1  0  0  0  0
 43 92  1  0  0  0  0
 43 93  1  0  0  0  0
 44 45  1  0  0  0  0
 44 94  1  0  0  0  0
 44 95  1  0  0  0  0
 45 96  1  0  0  0  0
 45 97  1  0  0  0  0
 46 47  1  0  0  0  0
 46 48  1  0  0  0  0
 46 98  1  0  0  0  0
 47 99  1  0  0  0  0
 47100  1  0  0  0  0
 47101  1  0  0  0  0
 48102  1  0  0  0  0
 48103  1  0  0  0  0
 48104  1  0  0  0  0
 49 50  1  0  0  0  0
 49105  1  0  0  0  0
 50 51  1  0  0  0  0
 51 52  1  0  0  0  0
 52106  1  0  0  0  0
 52107  1  0  0  0  0
 52108  1  0  0  0  0
M  END
>  <Energy>
288.114

$$$$