90655518
  -OEChem-03242010103D

 56 58  0     0  0  0  0  0  0999 V2000
   -2.6638   -2.6211    0.4594 O   0  0  0  0  0  0  0  0  0  0  0  0
   -7.4164    1.5596    0.0385 O   0  0  0  0  0  0  0  0  0  0  0  0
   -7.4954   -1.2113    0.2074 O   0  0  0  0  0  0  0  0  0  0  0  0
    5.1329    2.5955   -0.2281 O   0  0  0  0  0  0  0  0  0  0  0  0
    7.0670   -1.7775    0.0402 O   0  0  0  0  0  0  0  0  0  0  0  0
    7.3672    0.9587   -0.2631 O   0  0  0  0  0  0  0  0  0  0  0  0
   -2.5204    1.5057    0.0145 C   0  0  0  0  0  0  0  0  0  0  0  0
   -1.4437    0.6707   -0.6689 C   0  0  0  0  0  0  0  0  0  0  0  0
   -3.8359    0.7741    0.0396 C   0  0  0  0  0  0  0  0  0  0  0  0
   -3.8830   -0.6263    0.1399 C   0  0  0  0  0  0  0  0  0  0  0  0
   -1.3550   -0.6909   -0.0498 C   0  0  0  0  0  0  0  0  0  0  0  0
   -2.6306   -1.4226    0.2076 C   0  0  0  0  0  0  0  0  0  0  0  0
   -5.0364    1.4972    0.0194 C   0  0  0  0  0  0  0  0  0  0  0  0
   -5.1160   -1.2875    0.1994 C   0  0  0  0  0  0  0  0  0  0  0  0
   -6.2630    0.8351    0.0749 C   0  0  0  0  0  0  0  0  0  0  0  0
   -6.3022   -0.5547    0.1627 C   0  0  0  0  0  0  0  0  0  0  0  0
   -0.1984   -1.2794    0.2829 C   0  0  0  0  0  0  0  0  0  0  0  0
    1.0923   -0.6634    0.0787 C   0  0  0  0  0  0  0  0  0  0  0  0
    2.2438   -1.2649    0.4169 C   0  0  0  0  0  0  0  0  0  0  0  0
    3.5855   -0.6825    0.2398 C   0  0  0  0  0  0  0  0  0  0  0  0
    4.7084   -1.5099    0.2230 C   0  0  0  0  0  0  0  0  0  0  0  0
    3.7327    0.6960    0.0879 C   0  0  0  0  0  0  0  0  0  0  0  0
   -7.2880    2.9772   -0.0517 C   0  0  0  0  0  0  0  0  0  0  0  0
    5.0029    1.2475   -0.0808 C   0  0  0  0  0  0  0  0  0  0  0  0
    5.9786   -0.9585    0.0542 C   0  0  0  0  0  0  0  0  0  0  0  0
   -8.0658   -1.6034   -1.0396 C   0  0  0  0  0  0  0  0  0  0  0  0
    6.1258    0.4202   -0.0977 C   0  0  0  0  0  0  0  0  0  0  0  0
    3.9349    3.3690   -0.1990 C   0  0  0  0  0  0  0  0  0  0  0  0
    7.4730   -2.2939   -1.2259 C   0  0  0  0  0  0  0  0  0  0  0  0
    8.0689    1.3414    0.9177 C   0  0  0  0  0  0  0  0  0  0  0  0
   -2.6246    2.4538   -0.5270 H   0  0  0  0  0  0  0  0  0  0  0  0
   -2.2287    1.7422    1.0454 H   0  0  0  0  0  0  0  0  0  0  0  0
   -0.5275    1.2608   -0.6313 H   0  0  0  0  0  0  0  0  0  0  0  0
   -1.6913    0.5491   -1.7322 H   0  0  0  0  0  0  0  0  0  0  0  0
   -4.9463    2.5770   -0.0401 H   0  0  0  0  0  0  0  0  0  0  0  0
   -5.1655   -2.3711    0.2736 H   0  0  0  0  0  0  0  0  0  0  0  0
   -0.1951   -2.2677    0.7366 H   0  0  0  0  0  0  0  0  0  0  0  0
    1.1322    0.2985   -0.4103 H   0  0  0  0  0  0  0  0  0  0  0  0
    2.2223   -2.2552    0.8678 H   0  0  0  0  0  0  0  0  0  0  0  0
    4.6047   -2.5864    0.3402 H   0  0  0  0  0  0  0  0  0  0  0  0
    2.8500    1.3198    0.1384 H   0  0  0  0  0  0  0  0  0  0  0  0
   -8.3016    3.3912   -0.0703 H   0  0  0  0  0  0  0  0  0  0  0  0
   -6.8049    3.2807   -0.9867 H   0  0  0  0  0  0  0  0  0  0  0  0
   -6.7916    3.3950    0.8309 H   0  0  0  0  0  0  0  0  0  0  0  0
   -9.0162   -2.1055   -0.8388 H   0  0  0  0  0  0  0  0  0  0  0  0
   -8.2584   -0.7280   -1.6679 H   0  0  0  0  0  0  0  0  0  0  0  0
   -7.4040   -2.3022   -1.5610 H   0  0  0  0  0  0  0  0  0  0  0  0
    4.2258    4.4154   -0.3397 H   0  0  0  0  0  0  0  0  0  0  0  0
    3.4381    3.3087    0.7754 H   0  0  0  0  0  0  0  0  0  0  0  0
    3.2667    3.1137   -1.0287 H   0  0  0  0  0  0  0  0  0  0  0  0
    8.3557   -2.9207   -1.0730 H   0  0  0  0  0  0  0  0  0  0  0  0
    7.7361   -1.4794   -1.9082 H   0  0  0  0  0  0  0  0  0  0  0  0
    6.6786   -2.9079   -1.6620 H   0  0  0  0  0  0  0  0  0  0  0  0
    9.0378    1.7529    0.6220 H   0  0  0  0  0  0  0  0  0  0  0  0
    8.2399    0.4736    1.5625 H   0  0  0  0  0  0  0  0  0  0  0  0
    7.5141    2.1110    1.4635 H   0  0  0  0  0  0  0  0  0  0  0  0
  1 12  2  0  0  0  0
  2 15  1  0  0  0  0
  2 23  1  0  0  0  0
  3 16  1  0  0  0  0
  3 26  1  0  0  0  0
  4 24  1  0  0  0  0
  4 28  1  0  0  0  0
  5 25  1  0  0  0  0
  5 29  1  0  0  0  0
  6 27  1  0  0  0  0
  6 30  1  0  0  0  0
  7  8  1  0  0  0  0
  7  9  1  0  0  0  0
  7 31  1  0  0  0  0
  7 32  1  0  0  0  0
  8 11  1  0  0  0  0
  8 33  1  0  0  0  0
  8 34  1  0  0  0  0
  9 10  1  0  0  0  0
  9 13  2  0  0  0  0
 10 12  1  0  0  0  0
 10 14  2  0  0  0  0
 11 12  1  0  0  0  0
 11 17  2  0  0  0  0
 13 15  1  0  0  0  0
 13 35  1  0  0  0  0
 14 16  1  0  0  0  0
 14 36  1  0  0  0  0
 15 16  2  0  0  0  0
 17 18  1  0  0  0  0
 17 37  1  0  0  0  0
 18 19  2  0  0  0  0
 18 38  1  0  0  0  0
 19 20  1  0  0  0  0
 19 39  1  0  0  0  0
 20 21  2  0  0  0  0
 20 22  1  0  0  0  0
 21 25  1  0  0  0  0
 21 40  1  0  0  0  0
 22 24  2  0  0  0  0
 22 41  1  0  0  0  0
 23 42  1  0  0  0  0
 23 43  1  0  0  0  0
 23 44  1  0  0  0  0
 24 27  1  0  0  0  0
 25 27  2  0  0  0  0
 26 45  1  0  0  0  0
 26 46  1  0  0  0  0
 26 47  1  0  0  0  0
 28 48  1  0  0  0  0
 28 49  1  0  0  0  0
 28 50  1  0  0  0  0
 29 51  1  0  0  0  0
 29 52  1  0  0  0  0
 29 53  1  0  0  0  0
 30 54  1  0  0  0  0
 30 55  1  0  0  0  0
 30 56  1  0  0  0  0
M  END
> <PUBCHEM_COMPOUND_CID>
90655518

> <PUBCHEM_CONFORMER_RMSD>
1

> <PUBCHEM_CONFORMER_DIVERSEORDER>
2
4
7
5
8
10
1
6
3
9

> <PUBCHEM_MMFF94_PARTIAL_CHARGES>
37
1 -0.57
10 0.09
11 -0.12
12 0.47
13 -0.15
14 -0.15
15 0.08
16 0.08
17 -0.15
18 -0.15
19 -0.18
2 -0.36
20 0.03
21 -0.15
22 -0.15
23 0.28
24 0.08
25 0.08
26 0.28
27 0.08
28 0.28
29 0.28
3 -0.36
30 0.28
35 0.15
36 0.15
37 0.15
38 0.15
39 0.15
4 -0.36
40 0.15
41 0.15
5 -0.36
6 -0.36
7 0.14
8 0.14
9 -0.14

> <PUBCHEM_EFFECTIVE_ROTOR_COUNT>
7.4

> <PUBCHEM_PHARMACOPHORE_FEATURES>
9
1 1 acceptor
1 2 acceptor
1 3 acceptor
1 4 acceptor
1 5 acceptor
1 6 acceptor
6 20 21 22 24 25 27 rings
6 7 8 9 10 11 12 rings
6 9 10 13 14 15 16 rings

> <PUBCHEM_HEAVY_ATOM_COUNT>
30

> <PUBCHEM_ATOM_DEF_STEREO_COUNT>
0

> <PUBCHEM_ATOM_UDEF_STEREO_COUNT>
0

> <PUBCHEM_BOND_DEF_STEREO_COUNT>
2

> <PUBCHEM_BOND_UDEF_STEREO_COUNT>
0

> <PUBCHEM_ISOTOPIC_ATOM_COUNT>
0

> <PUBCHEM_COMPONENT_COUNT>
1

> <PUBCHEM_CACTVS_TAUTO_COUNT>
1

> <PUBCHEM_CONFORMER_ID>
05674B1E00000002

> <PUBCHEM_MMFF94_ENERGY>
135.0873

> <PUBCHEM_FEATURE_SELFOVERLAP>
45.712

> <PUBCHEM_SHAPE_FINGERPRINT>
10299344 5 18273216408868121587
11007060 377 18334017216225842371
11315181 36 18202002119464737249
11719270 70 17917992746566576622
12082328 90 18343298168027078095
12166972 35 18333454244365405132
14251764 18 18334575750050737582
14394314 77 18334578997880210181
14856354 85 16558747941173674349
14933364 13 18409450284289008626
15183329 4 18341898472101639544
15419008 145 18115293502732805064
15461852 350 17988916774649588695
1577012 14 18188204308791982667
18335252 114 18341044143008902668
19611394 137 17970080031310335307
20721686 56 18334579070461592193
21315759 40 17561085812653615291
21315763 28 18411418419056840951
221357 26 18408604752127791252
23559900 14 18341325686314550728
24771293 8 18334296457466299877
249057 3 18412546492628800006
3004659 81 18408040698182996448
335507 130 18343300409514677375
34797466 226 18060430143662741143
4073 2 17968101975442719234
4325135 7 18412543244868327959
4339292 15 16343126040392782543
4625314 4 18413106174143640807
5758199 1 17676209048089844339
9831232 110 18130234748588017894
99344 41 18411417289216743519

> <PUBCHEM_SHAPE_MULTIPOLES>
582.17
27.59
2.93
0.76
1.27
1.53
-0.08
2.56
-2
0.6
-0.24
0.32
-0.15
0.48

> <PUBCHEM_SHAPE_SELFOVERLAP>
1245.948

> <PUBCHEM_SHAPE_VOLUME>
325.2

> <PUBCHEM_COORDINATE_TYPE>
2
5
10

$$$$