102340686
  -OEChem-03242010103D

 46 48  0     0  0  0  0  0  0999 V2000
    2.9430   -2.5924    0.1189 O   0  0  0  0  0  0  0  0  0  0  0  0
    4.9969    2.5255    0.1098 O   0  0  0  0  0  0  0  0  0  0  0  0
    6.6406    0.3517   -0.4357 O   0  0  0  0  0  0  0  0  0  0  0  0
    0.8737   -1.1290    1.6487 O   0  0  0  0  0  0  0  0  0  0  0  0
    0.3072    0.2163   -0.1884 N   0  0  0  0  0  0  0  0  0  0  0  0
   -1.7777    0.8871   -1.1184 N   0  0  0  0  0  0  0  0  0  0  0  0
   -7.3431   -0.0345    1.1488 N   0  0  0  0  0  0  0  0  0  0  0  0
    2.6141   -0.2319    0.3926 C   0  0  0  0  0  0  0  0  0  0  0  0
    3.4390   -1.3231    0.1191 C   0  0  0  0  0  0  0  0  0  0  0  0
    3.1415    1.0594    0.3884 C   0  0  0  0  0  0  0  0  0  0  0  0
    4.4937    1.2597    0.1102 C   0  0  0  0  0  0  0  0  0  0  0  0
    5.3186    0.1685   -0.1634 C   0  0  0  0  0  0  0  0  0  0  0  0
    4.7912   -1.1228   -0.1588 C   0  0  0  0  0  0  0  0  0  0  0  0
    1.1996   -0.4195    0.6847 C   0  0  0  0  0  0  0  0  0  0  0  0
   -1.1090    0.1942   -0.1694 C   0  0  0  0  0  0  0  0  0  0  0  0
   -3.8362    0.1276   -0.1030 C   0  0  0  0  0  0  0  0  0  0  0  0
   -5.2799    0.1177   -0.1021 C   0  0  0  0  0  0  0  0  0  0  0  0
   -1.7233   -0.5437    0.8297 C   0  0  0  0  0  0  0  0  0  0  0  0
   -3.1132   -0.5725    0.8565 C   0  0  0  0  0  0  0  0  0  0  0  0
   -3.1274    0.8356   -1.0603 C   0  0  0  0  0  0  0  0  0  0  0  0
   -5.9985    0.2434   -1.2860 C   0  0  0  0  0  0  0  0  0  0  0  0
   -5.9932   -0.0174    1.0780 C   0  0  0  0  0  0  0  0  0  0  0  0
    2.4370   -3.0895   -1.1183 C   0  0  0  0  0  0  0  0  0  0  0  0
   -7.3885    0.2304   -1.2538 C   0  0  0  0  0  0  0  0  0  0  0  0
    4.0865    3.5849    0.3991 C   0  0  0  0  0  0  0  0  0  0  0  0
    7.4146   -0.8158   -0.7046 C   0  0  0  0  0  0  0  0  0  0  0  0
   -8.0073    0.0901   -0.0221 C   0  0  0  0  0  0  0  0  0  0  0  0
    2.4570    1.8701    0.6155 H   0  0  0  0  0  0  0  0  0  0  0  0
    5.3788   -2.0121   -0.3618 H   0  0  0  0  0  0  0  0  0  0  0  0
    0.6992    0.7654   -0.9500 H   0  0  0  0  0  0  0  0  0  0  0  0
   -1.2329   -1.1146    1.6003 H   0  0  0  0  0  0  0  0  0  0  0  0
   -3.5952   -1.1706    1.6251 H   0  0  0  0  0  0  0  0  0  0  0  0
   -3.6094    1.4297   -1.8305 H   0  0  0  0  0  0  0  0  0  0  0  0
   -5.5146    0.3291   -2.2549 H   0  0  0  0  0  0  0  0  0  0  0  0
   -5.5150   -0.0961    2.0494 H   0  0  0  0  0  0  0  0  0  0  0  0
    2.0595   -4.1020   -0.9514 H   0  0  0  0  0  0  0  0  0  0  0  0
    3.2339   -3.1327   -1.8676 H   0  0  0  0  0  0  0  0  0  0  0  0
    1.6144   -2.4657   -1.4815 H   0  0  0  0  0  0  0  0  0  0  0  0
   -7.9695    0.3211   -2.1644 H   0  0  0  0  0  0  0  0  0  0  0  0
    3.6867    3.5073    1.4160 H   0  0  0  0  0  0  0  0  0  0  0  0
    3.2969    3.6570   -0.3566 H   0  0  0  0  0  0  0  0  0  0  0  0
    4.6554    4.5194    0.3530 H   0  0  0  0  0  0  0  0  0  0  0  0
    8.4398   -0.4844   -0.9003 H   0  0  0  0  0  0  0  0  0  0  0  0
    7.0694   -1.3299   -1.6082 H   0  0  0  0  0  0  0  0  0  0  0  0
    7.4566   -1.4814    0.1643 H   0  0  0  0  0  0  0  0  0  0  0  0
   -9.0894    0.0725    0.0569 H   0  0  0  0  0  0  0  0  0  0  0  0
  1  9  1  0  0  0  0
  1 23  1  0  0  0  0
  2 11  1  0  0  0  0
  2 25  1  0  0  0  0
  3 12  1  0  0  0  0
  3 26  1  0  0  0  0
  4 14  2  0  0  0  0
  5 14  1  0  0  0  0
  5 15  1  0  0  0  0
  5 30  1  0  0  0  0
  6 15  2  0  0  0  0
  6 20  1  0  0  0  0
  7 22  1  0  0  0  0
  7 27  2  0  0  0  0
  8  9  1  0  0  0  0
  8 10  2  0  0  0  0
  8 14  1  0  0  0  0
  9 13  2  0  0  0  0
 10 11  1  0  0  0  0
 10 28  1  0  0  0  0
 11 12  2  0  0  0  0
 12 13  1  0  0  0  0
 13 29  1  0  0  0  0
 15 18  1  0  0  0  0
 16 17  1  0  0  0  0
 16 19  1  0  0  0  0
 16 20  2  0  0  0  0
 17 21  1  0  0  0  0
 17 22  2  0  0  0  0
 18 19  2  0  0  0  0
 18 31  1  0  0  0  0
 19 32  1  0  0  0  0
 20 33  1  0  0  0  0
 21 24  2  0  0  0  0
 21 34  1  0  0  0  0
 22 35  1  0  0  0  0
 23 36  1  0  0  0  0
 23 37  1  0  0  0  0
 23 38  1  0  0  0  0
 24 27  1  0  0  0  0
 24 39  1  0  0  0  0
 25 40  1  0  0  0  0
 25 41  1  0  0  0  0
 25 42  1  0  0  0  0
 26 43  1  0  0  0  0
 26 44  1  0  0  0  0
 26 45  1  0  0  0  0
 27 46  1  0  0  0  0
M  END
> <PUBCHEM_COMPOUND_CID>
102340686

> <PUBCHEM_CONFORMER_RMSD>
0.8

> <PUBCHEM_CONFORMER_DIVERSEORDER>
2
19
6
25
24
7
27
5
3
21
10
26
16
28
13
20
22
9
8
23
15
18
17
4
11
12
1
14

> <PUBCHEM_MMFF94_PARTIAL_CHARGES>
35
1 -0.36
10 -0.15
11 0.08
12 0.08
13 -0.15
14 0.54
15 0.43
18 -0.15
19 -0.15
2 -0.36
20 0.16
21 -0.15
22 0.16
23 0.28
24 -0.15
25 0.28
26 0.28
27 0.16
28 0.15
29 0.15
3 -0.36
30 0.37
31 0.15
32 0.15
33 0.15
34 0.15
35 0.15
39 0.15
4 -0.57
46 0.15
5 -0.55
6 -0.62
7 -0.62
8 0.09
9 0.08

> <PUBCHEM_EFFECTIVE_ROTOR_COUNT>
7

> <PUBCHEM_PHARMACOPHORE_FEATURES>
9
1 1 acceptor
1 2 acceptor
1 3 acceptor
1 4 acceptor
1 5 donor
1 7 acceptor
6 6 15 16 18 19 20 rings
6 7 17 21 22 24 27 rings
6 8 9 10 11 12 13 rings

> <PUBCHEM_HEAVY_ATOM_COUNT>
27

> <PUBCHEM_ATOM_DEF_STEREO_COUNT>
0

> <PUBCHEM_ATOM_UDEF_STEREO_COUNT>
0

> <PUBCHEM_BOND_DEF_STEREO_COUNT>
0

> <PUBCHEM_BOND_UDEF_STEREO_COUNT>
0

> <PUBCHEM_ISOTOPIC_ATOM_COUNT>
0

> <PUBCHEM_COMPONENT_COUNT>
1

> <PUBCHEM_CACTVS_TAUTO_COUNT>
6

> <PUBCHEM_CONFORMER_ID>
0619984E00000002

> <PUBCHEM_MMFF94_ENERGY>
121.42

> <PUBCHEM_FEATURE_SELFOVERLAP>
45.679

> <PUBCHEM_SHAPE_FINGERPRINT>
10 15 17168140186792832529
10299344 5 17704071785492757799
10319688 140 18127695933216339990
10411042 1 18051413973382660270
10638233 991 18130788984184488441
10693767 8 17773605923658632086
11181472 205 17987805078205491913
11315181 36 16588026802129532325
12236239 1 17060337426817356249
12516196 113 18113616790365164645
12730499 353 18333732412174742578
13533116 47 18060137596593137715
13617811 41 15554452907249498345
14170010 4 18412543215732056120
14294032 229 15840453405575007593
14856354 85 17275100661759486573
14933364 13 18408604747664161777
15183329 4 18272086085229184795
15419008 47 17822286881701883517
15439362 3 17200777072609217256
15510794 2 17967817129275162699
17844677 252 18340207393301476949
18335252 114 18341891901097374420
18335252 98 17749115482906776771
19427546 62 18338797926673826994
20157964 124 18412544327426894256
20554085 129 16732976535592511976
20771845 140 16199862861816976974
21033648 29 17750514156223491984
21150785 3 18343861130849420871
21315759 40 17131835365146995253
21792961 116 18187933829395675770
220451 1 17632573847579850231
221357 26 18410291394116791956
23081809 10 17632856417830964243
23516275 137 17345777212832080063
23522609 53 17489045828688607169
23559900 14 18409728503733425649
249057 3 18343302587448081798
255183 451 17772200708869309038
29717793 49 17489595562784590412
3004659 81 17775563130678455594
3178227 256 18410291411665380778
335352 9 18413112763045303694
34797466 226 18272655649052524997
3545911 37 18186521007644109084
394071 54 18408328800009862681
397830 11 17824271603775005969
4073 2 18041847323427755947
4325135 7 17822013103337552566
46194498 28 18411418371764553054
5104073 3 17531796945125896305
58902169 19 17917988412469529077
59755656 215 18259703380892585294
6025842 7 18342457028356725558

> <PUBCHEM_SHAPE_MULTIPOLES>
517.23
21.89
2.25
1.14
21.14
0.61
0
2.48
3.02
-5.63
0.17
1.33
-0.17
0.94

> <PUBCHEM_SHAPE_SELFOVERLAP>
1123.671

> <PUBCHEM_SHAPE_VOLUME>
282.1

> <PUBCHEM_COORDINATE_TYPE>
2
5
10

$$$$