53316757
  -OEChem-03242010103D

 91 94  0     1  0  0  0  0  0999 V2000
   -6.2092   -0.6260   -0.1433 O   0  0  0  0  0  0  0  0  0  0  0  0
    4.0980   -1.2835   -0.6116 O   0  0  0  0  0  0  0  0  0  0  0  0
   -7.0471   -1.1793    1.9282 O   0  0  0  0  0  0  0  0  0  0  0  0
    5.3958   -3.1711   -0.9400 O   0  0  0  0  0  0  0  0  0  0  0  0
   -9.1372    2.7126   -2.1114 O   0  0  0  0  0  0  0  0  0  0  0  0
  -11.1737    1.8198    2.1307 O   0  0  0  0  0  0  0  0  0  0  0  0
  -11.1560    3.1906   -0.2759 O   0  0  0  0  0  0  0  0  0  0  0  0
   11.4884    0.4132    2.1283 O   0  0  0  0  0  0  0  0  0  0  0  0
    9.9463    3.5215   -1.1732 O   0  0  0  0  0  0  0  0  0  0  0  0
   11.8271    2.7720    0.7168 O   0  0  0  0  0  0  0  0  0  0  0  0
   -1.2023   -3.1992   -0.4535 N   0  0  1  0  0  0  0  0  0  0  0  0
   -2.3371   -2.2847   -0.5746 C   0  0  0  0  0  0  0  0  0  0  0  0
    0.0412   -2.4502   -0.2760 C   0  0  0  0  0  0  0  0  0  0  0  0
   -3.5150   -3.0057   -1.2407 C   0  0  0  0  0  0  0  0  0  0  0  0
   -2.7320   -1.7315    0.8005 C   0  0  0  0  0  0  0  0  0  0  0  0
    1.1125   -3.3614    0.3348 C   0  0  0  0  0  0  0  0  0  0  0  0
    0.5108   -1.8616   -1.6124 C   0  0  0  0  0  0  0  0  0  0  0  0
   -3.9588   -0.8282    0.7038 C   0  0  0  0  0  0  0  0  0  0  0  0
   -4.7392   -2.0985   -1.3334 C   0  0  0  0  0  0  0  0  0  0  0  0
    2.4437   -2.6293    0.4830 C   0  0  0  0  0  0  0  0  0  0  0  0
    1.8440   -1.1340   -1.4605 C   0  0  0  0  0  0  0  0  0  0  0  0
   -5.1322   -1.5400    0.0324 C   0  0  0  0  0  0  0  0  0  0  0  0
    2.9121   -2.0358   -0.8438 C   0  0  0  0  0  0  0  0  0  0  0  0
   -1.4064   -4.1224    0.6623 C   0  0  0  0  0  0  0  0  0  0  0  0
   -7.0962   -0.5452    0.8857 C   0  0  0  0  0  0  0  0  0  0  0  0
    5.2656   -1.9817   -0.6921 C   0  0  0  0  0  0  0  0  0  0  0  0
   -8.1663    0.4377    0.5798 C   0  0  0  0  0  0  0  0  0  0  0  0
    6.4132   -1.1487   -0.4452 C   0  0  0  0  0  0  0  0  0  0  0  0
   -9.1822    0.6744    1.5057 C   0  0  0  0  0  0  0  0  0  0  0  0
   -8.1547    1.1253   -0.6338 C   0  0  0  0  0  0  0  0  0  0  0  0
   -9.1591    2.0494   -0.9216 C   0  0  0  0  0  0  0  0  0  0  0  0
  -10.1866    1.5987    1.2181 C   0  0  0  0  0  0  0  0  0  0  0  0
  -10.1750    2.2861    0.0044 C   0  0  0  0  0  0  0  0  0  0  0  0
    7.3717   -0.4547   -0.2395 C   0  0  0  0  0  0  0  0  0  0  0  0
    8.5130    0.3723    0.0054 C   0  0  0  0  0  0  0  0  0  0  0  0
    8.6812    1.5587   -0.7085 C   0  0  0  0  0  0  0  0  0  0  0  0
    9.4584   -0.0084    0.9578 C   0  0  0  0  0  0  0  0  0  0  0  0
   -8.0637    2.4119   -3.0010 C   0  0  0  0  0  0  0  0  0  0  0  0
  -11.1110    1.0756    3.3459 C   0  0  0  0  0  0  0  0  0  0  0  0
  -12.3194    2.6987   -0.9371 C   0  0  0  0  0  0  0  0  0  0  0  0
   10.5719    0.7972    1.1962 C   0  0  0  0  0  0  0  0  0  0  0  0
    9.7946    2.3644   -0.4701 C   0  0  0  0  0  0  0  0  0  0  0  0
   10.7400    1.9835    0.4822 C   0  0  0  0  0  0  0  0  0  0  0  0
   12.5701   -0.3995    1.6765 C   0  0  0  0  0  0  0  0  0  0  0  0
   10.6662    3.4431   -2.4020 C   0  0  0  0  0  0  0  0  0  0  0  0
   11.6945    3.7739    1.7228 C   0  0  0  0  0  0  0  0  0  0  0  0
   -2.0974   -1.4380   -1.2275 H   0  0  0  0  0  0  0  0  0  0  0  0
   -0.0854   -1.6198    0.4293 H   0  0  0  0  0  0  0  0  0  0  0  0
   -3.8110   -3.9092   -0.6973 H   0  0  0  0  0  0  0  0  0  0  0  0
   -3.0111   -2.5183    1.5102 H   0  0  0  0  0  0  0  0  0  0  0  0
   -1.9257   -1.1524    1.2616 H   0  0  0  0  0  0  0  0  0  0  0  0
   -3.2320   -3.3281   -2.2507 H   0  0  0  0  0  0  0  0  0  0  0  0
    0.6233   -2.6627   -2.3552 H   0  0  0  0  0  0  0  0  0  0  0  0
   -0.2117   -1.1506   -2.0249 H   0  0  0  0  0  0  0  0  0  0  0  0
    0.8633   -3.7042    1.3445 H   0  0  0  0  0  0  0  0  0  0  0  0
    1.2718   -4.2478   -0.2939 H   0  0  0  0  0  0  0  0  0  0  0  0
   -5.5836   -2.6491   -1.7657 H   0  0  0  0  0  0  0  0  0  0  0  0
   -3.7088    0.0818    0.1428 H   0  0  0  0  0  0  0  0  0  0  0  0
   -4.2498   -0.4864    1.7044 H   0  0  0  0  0  0  0  0  0  0  0  0
   -4.5398   -1.2719   -2.0280 H   0  0  0  0  0  0  0  0  0  0  0  0
    2.3511   -1.8321    1.2324 H   0  0  0  0  0  0  0  0  0  0  0  0
    1.7128   -0.2378   -0.8400 H   0  0  0  0  0  0  0  0  0  0  0  0
    2.1879   -0.7705   -2.4364 H   0  0  0  0  0  0  0  0  0  0  0  0
    3.2016   -3.3173    0.8769 H   0  0  0  0  0  0  0  0  0  0  0  0
   -5.4458   -2.3901    0.6536 H   0  0  0  0  0  0  0  0  0  0  0  0
    3.1059   -2.8475   -1.5586 H   0  0  0  0  0  0  0  0  0  0  0  0
   -0.7528   -4.9977    0.5607 H   0  0  0  0  0  0  0  0  0  0  0  0
   -1.2455   -3.6858    1.6556 H   0  0  0  0  0  0  0  0  0  0  0  0
   -2.4052   -4.5717    0.6629 H   0  0  0  0  0  0  0  0  0  0  0  0
   -9.1458    0.1144    2.4336 H   0  0  0  0  0  0  0  0  0  0  0  0
   -7.3546    0.9225   -1.3345 H   0  0  0  0  0  0  0  0  0  0  0  0
    7.9481    1.8634   -1.4525 H   0  0  0  0  0  0  0  0  0  0  0  0
    9.3345   -0.9321    1.5194 H   0  0  0  0  0  0  0  0  0  0  0  0
   -7.0940    2.6914   -2.5750 H   0  0  0  0  0  0  0  0  0  0  0  0
   -8.0925    1.3682   -3.3324 H   0  0  0  0  0  0  0  0  0  0  0  0
   -8.2050    3.0297   -3.8941 H   0  0  0  0  0  0  0  0  0  0  0  0
  -11.2123   -0.0002    3.1667 H   0  0  0  0  0  0  0  0  0  0  0  0
  -10.2142    1.3214    3.9247 H   0  0  0  0  0  0  0  0  0  0  0  0
  -11.9715    1.3776    3.9522 H   0  0  0  0  0  0  0  0  0  0  0  0
  -12.0589    2.2768   -1.9130 H   0  0  0  0  0  0  0  0  0  0  0  0
  -12.8211    1.9435   -0.3238 H   0  0  0  0  0  0  0  0  0  0  0  0
  -13.0058    3.5359   -1.0907 H   0  0  0  0  0  0  0  0  0  0  0  0
   13.2173   -0.6142    2.5312 H   0  0  0  0  0  0  0  0  0  0  0  0
   13.1566    0.1268    0.9168 H   0  0  0  0  0  0  0  0  0  0  0  0
   12.1960   -1.3461    1.2738 H   0  0  0  0  0  0  0  0  0  0  0  0
   11.6887    3.0932   -2.2282 H   0  0  0  0  0  0  0  0  0  0  0  0
   10.7089    4.4447   -2.8385 H   0  0  0  0  0  0  0  0  0  0  0  0
   10.1549    2.7767   -3.1039 H   0  0  0  0  0  0  0  0  0  0  0  0
   10.9030    4.4825    1.4590 H   0  0  0  0  0  0  0  0  0  0  0  0
   11.4818    3.3182    2.6950 H   0  0  0  0  0  0  0  0  0  0  0  0
   12.6408    4.3172    1.7914 H   0  0  0  0  0  0  0  0  0  0  0  0
  1 22  1  0  0  0  0
  1 25  1  0  0  0  0
  2 23  1  0  0  0  0
  2 26  1  0  0  0  0
  3 25  2  0  0  0  0
  4 26  2  0  0  0  0
  5 31  1  0  0  0  0
  5 38  1  0  0  0  0
  6 32  1  0  0  0  0
  6 39  1  0  0  0  0
  7 33  1  0  0  0  0
  7 40  1  0  0  0  0
  8 41  1  0  0  0  0
  8 44  1  0  0  0  0
  9 42  1  0  0  0  0
  9 45  1  0  0  0  0
 10 43  1  0  0  0  0
 10 46  1  0  0  0  0
 11 12  1  0  0  0  0
 11 13  1  0  0  0  0
 11 24  1  0  0  0  0
 12 14  1  0  0  0  0
 12 15  1  0  0  0  0
 12 47  1  0  0  0  0
 13 16  1  0  0  0  0
 13 17  1  0  0  0  0
 13 48  1  0  0  0  0
 14 19  1  0  0  0  0
 14 49  1  0  0  0  0
 14 52  1  0  0  0  0
 15 18  1  0  0  0  0
 15 50  1  0  0  0  0
 15 51  1  0  0  0  0
 16 20  1  0  0  0  0
 16 55  1  0  0  0  0
 16 56  1  0  0  0  0
 17 21  1  0  0  0  0
 17 53  1  0  0  0  0
 17 54  1  0  0  0  0
 18 22  1  0  0  0  0
 18 58  1  0  0  0  0
 18 59  1  0  0  0  0
 19 22  1  0  0  0  0
 19 57  1  0  0  0  0
 19 60  1  0  0  0  0
 20 23  1  0  0  0  0
 20 61  1  0  0  0  0
 20 64  1  0  0  0  0
 21 23  1  0  0  0  0
 21 62  1  0  0  0  0
 21 63  1  0  0  0  0
 22 65  1  0  0  0  0
 23 66  1  0  0  0  0
 24 67  1  0  0  0  0
 24 68  1  0  0  0  0
 24 69  1  0  0  0  0
 25 27  1  0  0  0  0
 26 28  1  0  0  0  0
 27 29  2  0  0  0  0
 27 30  1  0  0  0  0
 28 34  3  0  0  0  0
 29 32  1  0  0  0  0
 29 70  1  0  0  0  0
 30 31  2  0  0  0  0
 30 71  1  0  0  0  0
 31 33  1  0  0  0  0
 32 33  2  0  0  0  0
 34 35  1  0  0  0  0
 35 36  2  0  0  0  0
 35 37  1  0  0  0  0
 36 42  1  0  0  0  0
 36 72  1  0  0  0  0
 37 41  2  0  0  0  0
 37 73  1  0  0  0  0
 38 74  1  0  0  0  0
 38 75  1  0  0  0  0
 38 76  1  0  0  0  0
 39 77  1  0  0  0  0
 39 78  1  0  0  0  0
 39 79  1  0  0  0  0
 40 80  1  0  0  0  0
 40 81  1  0  0  0  0
 40 82  1  0  0  0  0
 41 43  1  0  0  0  0
 42 43  2  0  0  0  0
 44 83  1  0  0  0  0
 44 84  1  0  0  0  0
 44 85  1  0  0  0  0
 45 86  1  0  0  0  0
 45 87  1  0  0  0  0
 45 88  1  0  0  0  0
 46 89  1  0  0  0  0
 46 90  1  0  0  0  0
 46 91  1  0  0  0  0
M  END
> <PUBCHEM_COMPOUND_CID>
53316757

> <PUBCHEM_CONFORMER_RMSD>
1.4

> <PUBCHEM_CONFORMER_DIVERSEORDER>
3
18
28
21
24
11
23
27
15
22
10
25
12
4
26
13
31
30
8
6
20
9
14
16
17
29
19
2
1
5
7

> <PUBCHEM_MMFF94_PARTIAL_CHARGES>
42
1 -0.43
10 -0.36
11 -0.81
12 0.27
13 0.27
2 -0.43
22 0.28
23 0.28
24 0.27
25 0.63
26 0.83
27 0.09
28 -0.1
29 -0.15
3 -0.57
30 -0.15
31 0.08
32 0.08
33 0.08
34 -0.07
35 0.07
36 -0.15
37 -0.15
38 0.28
39 0.28
4 -0.57
40 0.28
41 0.08
42 0.08
43 0.08
44 0.28
45 0.28
46 0.28
5 -0.36
6 -0.36
7 -0.36
70 0.15
71 0.15
72 0.15
73 0.15
8 -0.36
9 -0.36

> <PUBCHEM_EFFECTIVE_ROTOR_COUNT>
15.4

> <PUBCHEM_PHARMACOPHORE_FEATURES>
13
1 10 acceptor
1 11 cation
1 3 acceptor
1 4 acceptor
1 5 acceptor
1 6 acceptor
1 7 acceptor
1 8 acceptor
1 9 acceptor
6 12 14 15 18 19 22 rings
6 13 16 17 20 21 23 rings
6 27 29 30 31 32 33 rings
6 35 36 37 41 42 43 rings

> <PUBCHEM_HEAVY_ATOM_COUNT>
46

> <PUBCHEM_ATOM_DEF_STEREO_COUNT>
0

> <PUBCHEM_ATOM_UDEF_STEREO_COUNT>
0

> <PUBCHEM_BOND_DEF_STEREO_COUNT>
0

> <PUBCHEM_BOND_UDEF_STEREO_COUNT>
0

> <PUBCHEM_ISOTOPIC_ATOM_COUNT>
0

> <PUBCHEM_COMPONENT_COUNT>
1

> <PUBCHEM_CACTVS_TAUTO_COUNT>
1

> <PUBCHEM_CONFORMER_ID>
032D8C9500000003

> <PUBCHEM_MMFF94_ENERGY>
172.3785

> <PUBCHEM_FEATURE_SELFOVERLAP>
65.998

> <PUBCHEM_SHAPE_FINGERPRINT>
10029044 110 18273498965907695658
10168742 298 11095881579549791784
10533779 1 18341894090849894852
10533779 47 16877933925029514274
10952577 141 18343021103444242591
11061554 47 18412261744158756455
11421887 45 17845643889880594744
11578821 258 18342177786388546836
11607047 141 18115867405127547234
11607047 74 10374995572988402890
12539745 222 11963380843681796743
13008946 119 18186238428898708443
131240 88 18113336397271800194
13530399 1 18413107277596554504
13553643 46 18411417289211670184
14202775 3 8286201656395950784
15604295 49 18408885114322974373
19315958 150 18411422782849778326
20105231 36 10737286852855992786
2026 5 8214152837113222250
21362267 313 18342453748125500082
21895431 317 7925643189551618184
23569917 315 9151166571883835613
23576562 1 15266480958969016714
2851757 41 9295282850992043981
306946 40 18411697664987573723
44389302 135 13334742323863262833
4516262 110 18271808982313917111
4760202 170 17489868268018124104
54039377 194 8935000369243646755

> <PUBCHEM_SHAPE_MULTIPOLES>
882.98
63.58
5.13
2.19
44.77
0.3
0.3
86.85
20.69
2.54
-1.46
-3.17
1.59
1.18

> <PUBCHEM_SHAPE_SELFOVERLAP>
1856.499

> <PUBCHEM_SHAPE_VOLUME>
496.7

> <PUBCHEM_COORDINATE_TYPE>
2
5
10

$$$$