16108935
  -OEChem-03242010103D

 93 96  0     1  0  0  0  0  0999 V2000
    6.1587   -0.7219    0.0861 O   0  0  0  0  0  0  0  0  0  0  0  0
   -4.1426   -1.5044   -0.3142 O   0  0  0  0  0  0  0  0  0  0  0  0
    7.1743   -1.2895   -1.9003 O   0  0  0  0  0  0  0  0  0  0  0  0
   -5.0856   -1.9973    1.7366 O   0  0  0  0  0  0  0  0  0  0  0  0
   11.2705    1.7537   -1.7949 O   0  0  0  0  0  0  0  0  0  0  0  0
    8.8794    2.6719    2.2518 O   0  0  0  0  0  0  0  0  0  0  0  0
   11.0400    3.1494    0.5861 O   0  0  0  0  0  0  0  0  0  0  0  0
  -10.0705    1.5341   -2.6299 O   0  0  0  0  0  0  0  0  0  0  0  0
  -11.3828    1.9892    1.9535 O   0  0  0  0  0  0  0  0  0  0  0  0
  -11.8392    2.5001   -0.7300 O   0  0  0  0  0  0  0  0  0  0  0  0
    1.1736   -3.3542    0.0079 N   0  0  2  0  0  0  0  0  0  0  0  0
    2.2832   -2.4237    0.2113 C   0  0  0  0  0  0  0  0  0  0  0  0
   -0.0588   -2.6237   -0.2860 C   0  0  0  0  0  0  0  0  0  0  0  0
    2.7876   -1.8848   -1.1333 C   0  0  0  0  0  0  0  0  0  0  0  0
    3.4083   -3.1201    0.9860 C   0  0  0  0  0  0  0  0  0  0  0  0
   -1.0635   -3.5570   -0.9719 C   0  0  0  0  0  0  0  0  0  0  0  0
   -0.6473   -2.0225    0.9968 C   0  0  0  0  0  0  0  0  0  0  0  0
    3.9911   -0.9646   -0.9462 C   0  0  0  0  0  0  0  0  0  0  0  0
    4.6096   -2.1962    1.1688 C   0  0  0  0  0  0  0  0  0  0  0  0
   -2.3857   -2.8440   -1.2438 C   0  0  0  0  0  0  0  0  0  0  0  0
   -1.9711   -1.3142    0.7209 C   0  0  0  0  0  0  0  0  0  0  0  0
    5.1112   -1.6519   -0.1669 C   0  0  0  0  0  0  0  0  0  0  0  0
   -2.9722   -2.2382    0.0293 C   0  0  0  0  0  0  0  0  0  0  0  0
    0.9962   -4.2033    1.1854 C   0  0  0  0  0  0  0  0  0  0  0  0
    7.1279   -0.6421   -0.8658 C   0  0  0  0  0  0  0  0  0  0  0  0
   -5.1198   -1.4683    0.6368 C   0  0  0  0  0  0  0  0  0  0  0  0
    8.1573    0.3575   -0.4840 C   0  0  0  0  0  0  0  0  0  0  0  0
   -6.2457   -0.6692    0.1024 C   0  0  0  0  0  0  0  0  0  0  0  0
    8.0383    1.0578    0.7165 C   0  0  0  0  0  0  0  0  0  0  0  0
    9.2448    0.5945   -1.3247 C   0  0  0  0  0  0  0  0  0  0  0  0
   -7.3403   -0.4848    0.8543 C   0  0  0  0  0  0  0  0  0  0  0  0
   10.2132    1.5318   -0.9650 C   0  0  0  0  0  0  0  0  0  0  0  0
    9.0068    1.9949    1.0763 C   0  0  0  0  0  0  0  0  0  0  0  0
   10.0942    2.2319    0.2356 C   0  0  0  0  0  0  0  0  0  0  0  0
   -8.5186    0.2967    0.4394 C   0  0  0  0  0  0  0  0  0  0  0  0
   -9.4072    0.7814    1.3990 C   0  0  0  0  0  0  0  0  0  0  0  0
   -8.7453    0.5517   -0.9130 C   0  0  0  0  0  0  0  0  0  0  0  0
   -9.8608    1.2915   -1.3058 C   0  0  0  0  0  0  0  0  0  0  0  0
  -10.5226    1.5213    1.0063 C   0  0  0  0  0  0  0  0  0  0  0  0
   11.1153    2.7683   -2.7851 C   0  0  0  0  0  0  0  0  0  0  0  0
    7.7386    2.3703    3.0527 C   0  0  0  0  0  0  0  0  0  0  0  0
  -10.7493    1.7763   -0.3462 C   0  0  0  0  0  0  0  0  0  0  0  0
   12.1490    2.6768    1.3472 C   0  0  0  0  0  0  0  0  0  0  0  0
   -9.4910    2.7195   -3.1713 C   0  0  0  0  0  0  0  0  0  0  0  0
  -11.1130    3.2818    2.4921 C   0  0  0  0  0  0  0  0  0  0  0  0
  -13.0356    1.7736   -1.0008 C   0  0  0  0  0  0  0  0  0  0  0  0
    1.9824   -1.5653    0.8242 H   0  0  0  0  0  0  0  0  0  0  0  0
    0.1221   -1.8074   -0.9942 H   0  0  0  0  0  0  0  0  0  0  0  0
    3.0742   -2.7192   -1.7873 H   0  0  0  0  0  0  0  0  0  0  0  0
    2.0157   -1.3199   -1.6653 H   0  0  0  0  0  0  0  0  0  0  0  0
    3.1179   -3.4117    2.0007 H   0  0  0  0  0  0  0  0  0  0  0  0
    3.7418   -4.0232    0.4571 H   0  0  0  0  0  0  0  0  0  0  0  0
   -1.2826   -4.4463   -0.3714 H   0  0  0  0  0  0  0  0  0  0  0  0
   -0.6496   -3.9169   -1.9223 H   0  0  0  0  0  0  0  0  0  0  0  0
    0.0284   -1.2989    1.4634 H   0  0  0  0  0  0  0  0  0  0  0  0
   -0.8804   -2.7807    1.7526 H   0  0  0  0  0  0  0  0  0  0  0  0
    3.6844   -0.0493   -0.4233 H   0  0  0  0  0  0  0  0  0  0  0  0
    4.3619   -0.6359   -1.9244 H   0  0  0  0  0  0  0  0  0  0  0  0
    5.4216   -2.7305    1.6772 H   0  0  0  0  0  0  0  0  0  0  0  0
    4.3440   -1.3623    1.8320 H   0  0  0  0  0  0  0  0  0  0  0  0
   -3.1054   -3.5427   -1.6876 H   0  0  0  0  0  0  0  0  0  0  0  0
   -2.2377   -2.0567   -1.9946 H   0  0  0  0  0  0  0  0  0  0  0  0
   -1.7967   -0.4265    0.0988 H   0  0  0  0  0  0  0  0  0  0  0  0
   -2.3946   -0.9371    1.6597 H   0  0  0  0  0  0  0  0  0  0  0  0
    5.4863   -2.5065   -0.7466 H   0  0  0  0  0  0  0  0  0  0  0  0
   -3.2233   -3.0708    0.7008 H   0  0  0  0  0  0  0  0  0  0  0  0
    1.7685   -4.9819    1.2170 H   0  0  0  0  0  0  0  0  0  0  0  0
    1.0064   -3.6690    2.1433 H   0  0  0  0  0  0  0  0  0  0  0  0
    0.0714   -4.7889    1.1500 H   0  0  0  0  0  0  0  0  0  0  0  0
   -6.1219   -0.2434   -0.8864 H   0  0  0  0  0  0  0  0  0  0  0  0
    7.1846    0.8543    1.3504 H   0  0  0  0  0  0  0  0  0  0  0  0
    9.3502    0.0545   -2.2626 H   0  0  0  0  0  0  0  0  0  0  0  0
   -7.3978   -0.9152    1.8514 H   0  0  0  0  0  0  0  0  0  0  0  0
   -9.2396    0.5888    2.4566 H   0  0  0  0  0  0  0  0  0  0  0  0
   -8.0877    0.1736   -1.6908 H   0  0  0  0  0  0  0  0  0  0  0  0
   10.2969    2.5165   -3.4670 H   0  0  0  0  0  0  0  0  0  0  0  0
   10.9287    3.7396   -2.3161 H   0  0  0  0  0  0  0  0  0  0  0  0
   12.0432    2.8304   -3.3603 H   0  0  0  0  0  0  0  0  0  0  0  0
    7.7992    2.9998    3.9469 H   0  0  0  0  0  0  0  0  0  0  0  0
    7.7494    1.3308    3.3980 H   0  0  0  0  0  0  0  0  0  0  0  0
    6.8051    2.6349    2.5441 H   0  0  0  0  0  0  0  0  0  0  0  0
   12.8113    3.5231    1.5489 H   0  0  0  0  0  0  0  0  0  0  0  0
   12.7079    1.9216    0.7857 H   0  0  0  0  0  0  0  0  0  0  0  0
   11.8121    2.2613    2.3023 H   0  0  0  0  0  0  0  0  0  0  0  0
   -9.8847    3.6068   -2.6657 H   0  0  0  0  0  0  0  0  0  0  0  0
   -8.4006    2.6884   -3.0817 H   0  0  0  0  0  0  0  0  0  0  0  0
   -9.7535    2.7759   -4.2312 H   0  0  0  0  0  0  0  0  0  0  0  0
  -11.8892    3.5162    3.2256 H   0  0  0  0  0  0  0  0  0  0  0  0
  -11.1361    4.0407    1.7036 H   0  0  0  0  0  0  0  0  0  0  0  0
  -10.1410    3.2921    2.9954 H   0  0  0  0  0  0  0  0  0  0  0  0
  -12.8808    1.0689   -1.8239 H   0  0  0  0  0  0  0  0  0  0  0  0
  -13.3724    1.2388   -0.1071 H   0  0  0  0  0  0  0  0  0  0  0  0
  -13.8106    2.4873   -1.2933 H   0  0  0  0  0  0  0  0  0  0  0  0
  1 22  1  0  0  0  0
  1 25  1  0  0  0  0
  2 23  1  0  0  0  0
  2 26  1  0  0  0  0
  3 25  2  0  0  0  0
  4 26  2  0  0  0  0
  5 32  1  0  0  0  0
  5 40  1  0  0  0  0
  6 33  1  0  0  0  0
  6 41  1  0  0  0  0
  7 34  1  0  0  0  0
  7 43  1  0  0  0  0
  8 38  1  0  0  0  0
  8 44  1  0  0  0  0
  9 39  1  0  0  0  0
  9 45  1  0  0  0  0
 10 42  1  0  0  0  0
 10 46  1  0  0  0  0
 11 12  1  0  0  0  0
 11 13  1  0  0  0  0
 11 24  1  0  0  0  0
 12 14  1  0  0  0  0
 12 15  1  0  0  0  0
 12 47  1  0  0  0  0
 13 16  1  0  0  0  0
 13 17  1  0  0  0  0
 13 48  1  0  0  0  0
 14 18  1  0  0  0  0
 14 49  1  0  0  0  0
 14 50  1  0  0  0  0
 15 19  1  0  0  0  0
 15 51  1  0  0  0  0
 15 52  1  0  0  0  0
 16 20  1  0  0  0  0
 16 53  1  0  0  0  0
 16 54  1  0  0  0  0
 17 21  1  0  0  0  0
 17 55  1  0  0  0  0
 17 56  1  0  0  0  0
 18 22  1  0  0  0  0
 18 57  1  0  0  0  0
 18 58  1  0  0  0  0
 19 22  1  0  0  0  0
 19 59  1  0  0  0  0
 19 60  1  0  0  0  0
 20 23  1  0  0  0  0
 20 61  1  0  0  0  0
 20 62  1  0  0  0  0
 21 23  1  0  0  0  0
 21 63  1  0  0  0  0
 21 64  1  0  0  0  0
 22 65  1  0  0  0  0
 23 66  1  0  0  0  0
 24 67  1  0  0  0  0
 24 68  1  0  0  0  0
 24 69  1  0  0  0  0
 25 27  1  0  0  0  0
 26 28  1  0  0  0  0
 27 29  2  0  0  0  0
 27 30  1  0  0  0  0
 28 31  2  0  0  0  0
 28 70  1  0  0  0  0
 29 33  1  0  0  0  0
 29 71  1  0  0  0  0
 30 32  2  0  0  0  0
 30 72  1  0  0  0  0
 31 35  1  0  0  0  0
 31 73  1  0  0  0  0
 32 34  1  0  0  0  0
 33 34  2  0  0  0  0
 35 36  2  0  0  0  0
 35 37  1  0  0  0  0
 36 39  1  0  0  0  0
 36 74  1  0  0  0  0
 37 38  2  0  0  0  0
 37 75  1  0  0  0  0
 38 42  1  0  0  0  0
 39 42  2  0  0  0  0
 40 76  1  0  0  0  0
 40 77  1  0  0  0  0
 40 78  1  0  0  0  0
 41 79  1  0  0  0  0
 41 80  1  0  0  0  0
 41 81  1  0  0  0  0
 43 82  1  0  0  0  0
 43 83  1  0  0  0  0
 43 84  1  0  0  0  0
 44 85  1  0  0  0  0
 44 86  1  0  0  0  0
 44 87  1  0  0  0  0
 45 88  1  0  0  0  0
 45 89  1  0  0  0  0
 45 90  1  0  0  0  0
 46 91  1  0  0  0  0
 46 92  1  0  0  0  0
 46 93  1  0  0  0  0
M  END
> <PUBCHEM_COMPOUND_CID>
16108935

> <PUBCHEM_CONFORMER_RMSD>
1.4

> <PUBCHEM_CONFORMER_DIVERSEORDER>
1
2
3
8
9
10
5
4
7
6

> <PUBCHEM_MMFF94_PARTIAL_CHARGES>
44
1 -0.43
10 -0.36
11 -0.81
12 0.27
13 0.27
2 -0.43
22 0.28
23 0.28
24 0.27
25 0.63
26 0.71
27 0.09
28 -0.14
29 -0.15
3 -0.57
30 -0.15
31 -0.18
32 0.08
33 0.08
34 0.08
35 0.03
36 -0.15
37 -0.15
38 0.08
39 0.08
4 -0.57
40 0.28
41 0.28
42 0.08
43 0.28
44 0.28
45 0.28
46 0.28
5 -0.36
6 -0.36
7 -0.36
70 0.15
71 0.15
72 0.15
73 0.15
74 0.15
75 0.15
8 -0.36
9 -0.36

> <PUBCHEM_EFFECTIVE_ROTOR_COUNT>
17.4

> <PUBCHEM_PHARMACOPHORE_FEATURES>
13
1 10 acceptor
1 11 cation
1 3 acceptor
1 4 acceptor
1 5 acceptor
1 6 acceptor
1 7 acceptor
1 8 acceptor
1 9 acceptor
6 12 14 15 18 19 22 rings
6 13 16 17 20 21 23 rings
6 27 29 30 32 33 34 rings
6 35 36 37 38 39 42 rings

> <PUBCHEM_HEAVY_ATOM_COUNT>
46

> <PUBCHEM_ATOM_DEF_STEREO_COUNT>
0

> <PUBCHEM_ATOM_UDEF_STEREO_COUNT>
0

> <PUBCHEM_BOND_DEF_STEREO_COUNT>
1

> <PUBCHEM_BOND_UDEF_STEREO_COUNT>
0

> <PUBCHEM_ISOTOPIC_ATOM_COUNT>
0

> <PUBCHEM_COMPONENT_COUNT>
1

> <PUBCHEM_CACTVS_TAUTO_COUNT>
1

> <PUBCHEM_CONFORMER_ID>
00F5CD8700000001

> <PUBCHEM_MMFF94_ENERGY>
184.9695

> <PUBCHEM_FEATURE_SELFOVERLAP>
65.998

> <PUBCHEM_SHAPE_FINGERPRINT>
10029044 110 18412263934850592243
10533779 1 18410290324046942842
10533779 47 15502650464963437210
10952577 141 18060139855809577095
11061554 47 18409728478295807629
11421887 45 18129088087347414280
11607047 141 17968934181645062162
11607047 74 9871163057416332394
12559415 43 18335416846983037701
13553643 46 18335980862241049489
14359421 15 11671788147886068212
14395042 24 17458067066573505604
15538507 75 17530673309315249914
2026 5 9295297131236096411
20766409 102 18271247107088627273
21102433 48 11314321572574669889
2851757 41 8935004780448814024
306946 40 18410573993741392236
44389302 135 12179846092035940105
4516262 110 18412829066621889886
4760202 170 17489586810079234816
54131252 71 13479127961924723839
9937071 3 7925914776885463034

> <PUBCHEM_SHAPE_MULTIPOLES>
882.98
62.44
4.97
2.4
41.16
1.49
-0.29
-91.08
-5.58
-3.01
0.77
0.37
-2.45
1.98

> <PUBCHEM_SHAPE_SELFOVERLAP>
1853.637

> <PUBCHEM_SHAPE_VOLUME>
497.9

> <PUBCHEM_COORDINATE_TYPE>
2
5
10

$$$$