71492589
  -OEChem-03242010103D

 70 73  0     1  0  0  0  0  0999 V2000
   -1.2670    6.1508    0.8056 F   0  0  0  0  0  0  0  0  0  0  0  0
    0.9835   -1.6637   -0.9004 O   0  0  0  0  0  0  0  0  0  0  0  0
    0.1787    0.1110    1.2205 O   0  0  0  0  0  0  0  0  0  0  0  0
    4.7647   -1.0113    2.0574 O   0  0  0  0  0  0  0  0  0  0  0  0
    5.3410   -1.1019   -2.6647 O   0  0  0  0  0  0  0  0  0  0  0  0
   -3.5862   -0.1867   -2.2293 O   0  0  0  0  0  0  0  0  0  0  0  0
   -4.3040   -4.0033    0.5736 O   0  0  0  0  0  0  0  0  0  0  0  0
   -5.2942   -2.0923   -1.1701 O   0  0  0  0  0  0  0  0  0  0  0  0
   -0.3418    0.4309    3.4400 O   0  0  0  0  0  0  0  0  0  0  0  0
    0.2834    2.3781   -2.2130 O   0  0  0  0  0  0  0  0  0  0  0  0
   -0.4269    4.3489   -1.1315 N   0  0  0  0  0  0  0  0  0  0  0  0
    0.4754   -1.2624    1.4770 C   0  0  1  0  0  0  0  0  0  0  0  0
    0.2027   -2.1029    0.2228 C   0  0  1  0  0  0  0  0  0  0  0  0
    1.9464   -1.3937    1.8664 C   0  0  0  0  0  0  0  0  0  0  0  0
    2.8356   -1.3245    0.6542 C   0  0  0  0  0  0  0  0  0  0  0  0
   -1.2683   -2.1002   -0.1496 C   0  0  0  0  0  0  0  0  0  0  0  0
    2.3150   -1.4693   -0.6380 C   0  0  0  0  0  0  0  0  0  0  0  0
    4.2144   -1.1317    0.8152 C   0  0  0  0  0  0  0  0  0  0  0  0
    3.1548   -1.3817   -1.7512 C   0  0  0  0  0  0  0  0  0  0  0  0
   -2.1255   -3.0610    0.3866 C   0  0  0  0  0  0  0  0  0  0  0  0
   -1.7635   -1.1364   -1.0282 C   0  0  0  0  0  0  0  0  0  0  0  0
    5.0536   -1.0585   -0.2971 C   0  0  0  0  0  0  0  0  0  0  0  0
    4.5233   -1.1793   -1.5796 C   0  0  0  0  0  0  0  0  0  0  0  0
   -3.1156   -1.1336   -1.3705 C   0  0  0  0  0  0  0  0  0  0  0  0
   -3.4778   -3.0582    0.0444 C   0  0  0  0  0  0  0  0  0  0  0  0
   -0.2187    0.8397    2.2959 C   0  0  0  0  0  0  0  0  0  0  0  0
   -3.9728   -2.0945   -0.8343 C   0  0  0  0  0  0  0  0  0  0  0  0
   -0.4954    2.2432    1.8983 C   0  0  0  0  0  0  0  0  0  0  0  0
    5.1958   -2.2126    2.6924 C   0  0  0  0  0  0  0  0  0  0  0  0
   -0.3317    2.6377    0.5704 C   0  0  0  0  0  0  0  0  0  0  0  0
   -0.9189    3.1677    2.8533 C   0  0  0  0  0  0  0  0  0  0  0  0
    6.7308   -0.8936   -2.4167 C   0  0  0  0  0  0  0  0  0  0  0  0
   -0.5914    3.9563    0.1975 C   0  0  0  0  0  0  0  0  0  0  0  0
   -2.6433    0.7584   -2.7315 C   0  0  0  0  0  0  0  0  0  0  0  0
   -3.7177   -4.9514    1.4634 C   0  0  0  0  0  0  0  0  0  0  0  0
   -1.1786    4.4863    2.4804 C   0  0  0  0  0  0  0  0  0  0  0  0
   -6.1691   -1.3235   -0.3476 C   0  0  0  0  0  0  0  0  0  0  0  0
   -1.0150    4.8806    1.1524 C   0  0  0  0  0  0  0  0  0  0  0  0
   -0.0131    3.5684   -2.2190 C   0  0  0  0  0  0  0  0  0  0  0  0
    0.0374    4.3703   -3.4954 C   0  0  0  0  0  0  0  0  0  0  0  0
   -0.1511   -1.6368    2.2976 H   0  0  0  0  0  0  0  0  0  0  0  0
    0.4909   -3.1478    0.4111 H   0  0  0  0  0  0  0  0  0  0  0  0
    2.1015   -2.3663    2.3481 H   0  0  0  0  0  0  0  0  0  0  0  0
    2.2201   -0.6043    2.5756 H   0  0  0  0  0  0  0  0  0  0  0  0
    2.7436   -1.4778   -2.7533 H   0  0  0  0  0  0  0  0  0  0  0  0
   -1.6843   -3.7825    1.0660 H   0  0  0  0  0  0  0  0  0  0  0  0
   -1.0627   -0.4013   -1.4070 H   0  0  0  0  0  0  0  0  0  0  0  0
    6.1094   -0.9037   -0.0996 H   0  0  0  0  0  0  0  0  0  0  0  0
    5.5183   -1.9661    3.7077 H   0  0  0  0  0  0  0  0  0  0  0  0
    4.3844   -2.9441    2.7521 H   0  0  0  0  0  0  0  0  0  0  0  0
    6.0449   -2.6421    2.1514 H   0  0  0  0  0  0  0  0  0  0  0  0
   -0.0024    1.9016   -0.1456 H   0  0  0  0  0  0  0  0  0  0  0  0
   -1.0524    2.8806    3.8929 H   0  0  0  0  0  0  0  0  0  0  0  0
    7.2304   -0.8560   -3.3903 H   0  0  0  0  0  0  0  0  0  0  0  0
    7.1709   -1.7306   -1.8641 H   0  0  0  0  0  0  0  0  0  0  0  0
    6.9126    0.0693   -1.9272 H   0  0  0  0  0  0  0  0  0  0  0  0
   -2.2448    1.3839   -1.9268 H   0  0  0  0  0  0  0  0  0  0  0  0
   -1.8570    0.2764   -3.3221 H   0  0  0  0  0  0  0  0  0  0  0  0
   -3.1856    1.4248   -3.4105 H   0  0  0  0  0  0  0  0  0  0  0  0
   -3.3241   -4.4696    2.3649 H   0  0  0  0  0  0  0  0  0  0  0  0
   -4.5175   -5.6253    1.7879 H   0  0  0  0  0  0  0  0  0  0  0  0
   -2.9678   -5.5696    0.9581 H   0  0  0  0  0  0  0  0  0  0  0  0
   -1.5082    5.2064    3.2235 H   0  0  0  0  0  0  0  0  0  0  0  0
   -7.1841   -1.4211   -0.7424 H   0  0  0  0  0  0  0  0  0  0  0  0
   -5.8866   -0.2661   -0.3673 H   0  0  0  0  0  0  0  0  0  0  0  0
   -6.1570   -1.6959    0.6816 H   0  0  0  0  0  0  0  0  0  0  0  0
   -0.6366    5.3267   -1.3220 H   0  0  0  0  0  0  0  0  0  0  0  0
    0.7137    5.2211   -3.3736 H   0  0  0  0  0  0  0  0  0  0  0  0
   -0.9646    4.7317   -3.7433 H   0  0  0  0  0  0  0  0  0  0  0  0
    0.4018    3.7424   -4.3132 H   0  0  0  0  0  0  0  0  0  0  0  0
  1 38  1  0  0  0  0
  2 13  1  0  0  0  0
  2 17  1  0  0  0  0
  3 12  1  0  0  0  0
  3 26  1  0  0  0  0
  4 18  1  0  0  0  0
  4 29  1  0  0  0  0
  5 23  1  0  0  0  0
  5 32  1  0  0  0  0
  6 24  1  0  0  0  0
  6 34  1  0  0  0  0
  7 25  1  0  0  0  0
  7 35  1  0  0  0  0
  8 27  1  0  0  0  0
  8 37  1  0  0  0  0
  9 26  2  0  0  0  0
 10 39  2  0  0  0  0
 11 33  1  0  0  0  0
 11 39  1  0  0  0  0
 11 67  1  0  0  0  0
 12 13  1  0  0  0  0
 12 14  1  0  0  0  0
 12 41  1  0  0  0  0
 13 16  1  0  0  0  0
 13 42  1  0  0  0  0
 14 15  1  0  0  0  0
 14 43  1  0  0  0  0
 14 44  1  0  0  0  0
 15 17  2  0  0  0  0
 15 18  1  0  0  0  0
 16 20  2  0  0  0  0
 16 21  1  0  0  0  0
 17 19  1  0  0  0  0
 18 22  2  0  0  0  0
 19 23  2  0  0  0  0
 19 45  1  0  0  0  0
 20 25  1  0  0  0  0
 20 46  1  0  0  0  0
 21 24  2  0  0  0  0
 21 47  1  0  0  0  0
 22 23  1  0  0  0  0
 22 48  1  0  0  0  0
 24 27  1  0  0  0  0
 25 27  2  0  0  0  0
 26 28  1  0  0  0  0
 28 30  2  0  0  0  0
 28 31  1  0  0  0  0
 29 49  1  0  0  0  0
 29 50  1  0  0  0  0
 29 51  1  0  0  0  0
 30 33  1  0  0  0  0
 30 52  1  0  0  0  0
 31 36  2  0  0  0  0
 31 53  1  0  0  0  0
 32 54  1  0  0  0  0
 32 55  1  0  0  0  0
 32 56  1  0  0  0  0
 33 38  2  0  0  0  0
 34 57  1  0  0  0  0
 34 58  1  0  0  0  0
 34 59  1  0  0  0  0
 35 60  1  0  0  0  0
 35 61  1  0  0  0  0
 35 62  1  0  0  0  0
 36 38  1  0  0  0  0
 36 63  1  0  0  0  0
 37 64  1  0  0  0  0
 37 65  1  0  0  0  0
 37 66  1  0  0  0  0
 39 40  1  0  0  0  0
 40 68  1  0  0  0  0
 40 69  1  0  0  0  0
 40 70  1  0  0  0  0
M  END
> <PUBCHEM_COMPOUND_CID>
71492589

> <PUBCHEM_CONFORMER_RMSD>
1.2

> <PUBCHEM_CONFORMER_DIVERSEORDER>
1
13
39
62
51
54
6
56
25
48
41
52
36
60
27
59
21
18
35
46
29
32
38
10
55
5
16
43
7
19
61
22
58
42
57
63
53
12
40
47
23
8
20
31
37
15
44
9
4
50
28
33
14
17
30
34
26
24
3
11
49
2
45

> <PUBCHEM_MMFF94_PARTIAL_CHARGES>
48
1 -0.19
10 -0.57
11 -0.55
12 0.28
13 0.42
14 0.14
15 -0.14
16 -0.14
17 0.08
18 0.08
19 -0.15
2 -0.36
20 -0.15
21 -0.15
22 -0.15
23 0.08
24 0.08
25 0.08
26 0.63
27 0.08
28 0.09
29 0.28
3 -0.43
30 -0.15
31 -0.15
32 0.28
33 0.12
34 0.28
35 0.28
36 -0.15
37 0.28
38 0.19
39 0.57
4 -0.36
40 0.06
45 0.15
46 0.15
47 0.15
48 0.15
5 -0.36
52 0.15
53 0.15
6 -0.36
63 0.15
67 0.37
7 -0.36
8 -0.36
9 -0.57

> <PUBCHEM_EFFECTIVE_ROTOR_COUNT>
11.8

> <PUBCHEM_PHARMACOPHORE_FEATURES>
13
1 10 acceptor
1 11 donor
1 2 acceptor
1 4 acceptor
1 5 acceptor
1 6 acceptor
1 7 acceptor
1 8 acceptor
1 9 acceptor
6 15 17 18 19 22 23 rings
6 16 20 21 24 25 27 rings
6 2 12 13 14 15 17 rings
6 28 30 31 33 36 38 rings

> <PUBCHEM_HEAVY_ATOM_COUNT>
40

> <PUBCHEM_ATOM_DEF_STEREO_COUNT>
2

> <PUBCHEM_ATOM_UDEF_STEREO_COUNT>
0

> <PUBCHEM_BOND_DEF_STEREO_COUNT>
0

> <PUBCHEM_BOND_UDEF_STEREO_COUNT>
0

> <PUBCHEM_ISOTOPIC_ATOM_COUNT>
0

> <PUBCHEM_COMPONENT_COUNT>
1

> <PUBCHEM_CACTVS_TAUTO_COUNT>
3

> <PUBCHEM_CONFORMER_ID>
0442E3ED00000001

> <PUBCHEM_MMFF94_ENERGY>
166.0994

> <PUBCHEM_FEATURE_SELFOVERLAP>
66.018

> <PUBCHEM_SHAPE_FINGERPRINT>
11421498 54 17896301537843986523
11991303 11 17840328626056518114
12156800 1 16770743639326198561
12160290 23 17773033051307078146
12741549 16 18272090534757748835
12788726 201 18339921502586663555
150020 26 17688002616178887369
15444296 121 18198368250562307291
18365409 1 17985844635745640249
20600515 1 18412537734467783843
21304303 282 17908964535666652706
21716022 299 17909854341284595712
21987440 362 17836065042836376801
23559900 14 17825647105822910503
27425 322 16839925821600842568
44802255 64 15888364525618697447
469060 322 18189905218693625077
46939830 39 18408893940802851793
5081480 168 18268131219282012343

> <PUBCHEM_SHAPE_MULTIPOLES>
758.1
10.21
7.52
3.56
9.28
10.66
-0.19
-13.86
-4.44
-8.42
1.7
1.83
2.87
-0.85

> <PUBCHEM_SHAPE_SELFOVERLAP>
1639.134

> <PUBCHEM_SHAPE_VOLUME>
419.7

> <PUBCHEM_COORDINATE_TYPE>
2
5
10

$$$$