122179372
  -OEChem-03242010103D

 70 73  0     1  0  0  0  0  0999 V2000
    2.6522   -0.3775   -0.3894 O   0  0  0  0  0  0  0  0  0  0  0  0
   -0.0792    0.4329    0.0328 O   0  0  0  0  0  0  0  0  0  0  0  0
    2.6633    4.0505    1.5763 O   0  0  0  0  0  0  0  0  0  0  0  0
    5.6826    2.9210   -1.9233 O   0  0  0  0  0  0  0  0  0  0  0  0
   -0.0257   -3.9900   -2.5361 O   0  0  0  0  0  0  0  0  0  0  0  0
    0.3775   -5.3277    2.0449 O   0  0  0  0  0  0  0  0  0  0  0  0
   -0.3738   -5.8984   -0.5594 O   0  0  0  0  0  0  0  0  0  0  0  0
   -1.8018    0.8749    1.5019 O   0  0  0  0  0  0  0  0  0  0  0  0
   -7.4785    2.6316    0.0782 O   0  0  0  0  0  0  0  0  0  0  0  0
    0.7919    0.1648    1.1325 C   0  0  1  0  0  0  0  0  0  0  0  0
    1.8669   -0.8482    0.7178 C   0  0  1  0  0  0  0  0  0  0  0  0
    1.4620    1.4656    1.5706 C   0  0  0  0  0  0  0  0  0  0  0  0
    2.5862    1.8352    0.6409 C   0  0  0  0  0  0  0  0  0  0  0  0
    1.2671   -2.1996    0.3763 C   0  0  0  0  0  0  0  0  0  0  0  0
    3.1148    0.9070   -0.2650 C   0  0  0  0  0  0  0  0  0  0  0  0
    3.1326    3.1249    0.6912 C   0  0  0  0  0  0  0  0  0  0  0  0
    4.1451    1.2764   -1.1336 C   0  0  0  0  0  0  0  0  0  0  0  0
    1.0926   -3.1578    1.3747 C   0  0  0  0  0  0  0  0  0  0  0  0
    0.8900   -2.4837   -0.9363 C   0  0  0  0  0  0  0  0  0  0  0  0
    4.1710    3.4877   -0.1673 C   0  0  0  0  0  0  0  0  0  0  0  0
    4.6739    2.5652   -1.0819 C   0  0  0  0  0  0  0  0  0  0  0  0
    0.3385   -3.7257   -1.2504 C   0  0  0  0  0  0  0  0  0  0  0  0
    0.5409   -4.3999    1.0608 C   0  0  0  0  0  0  0  0  0  0  0  0
   -1.3597    0.7797    0.3650 C   0  0  0  0  0  0  0  0  0  0  0  0
    0.1641   -4.6839   -0.2519 C   0  0  0  0  0  0  0  0  0  0  0  0
   -2.1429    1.0263   -0.9025 C   0  0  0  0  0  0  0  0  0  0  0  0
   -3.5642    1.4535   -0.6418 C   0  0  0  0  0  0  0  0  0  0  0  0
    3.2892    4.0960    2.8563 C   0  0  0  0  0  0  0  0  0  0  0  0
    6.1766    4.2556   -1.8166 C   0  0  0  0  0  0  0  0  0  0  0  0
   -3.8722    2.8077   -0.5120 C   0  0  0  0  0  0  0  0  0  0  0  0
   -4.5716    0.4952   -0.5296 C   0  0  0  0  0  0  0  0  0  0  0  0
    0.1866   -2.9559   -3.4953 C   0  0  0  0  0  0  0  0  0  0  0  0
    0.7886   -4.9569    3.3594 C   0  0  0  0  0  0  0  0  0  0  0  0
   -1.7918   -6.0189   -0.4701 C   0  0  0  0  0  0  0  0  0  0  0  0
   -5.1877    3.2037   -0.2704 C   0  0  0  0  0  0  0  0  0  0  0  0
   -5.8870    0.8911   -0.2880 C   0  0  0  0  0  0  0  0  0  0  0  0
   -6.1950    2.2454   -0.1585 C   0  0  0  0  0  0  0  0  0  0  0  0
   -7.7229    4.0322    0.1998 C   0  0  0  0  0  0  0  0  0  0  0  0
    0.2211   -0.2499    1.9741 H   0  0  0  0  0  0  0  0  0  0  0  0
    2.5677   -1.0023    1.5516 H   0  0  0  0  0  0  0  0  0  0  0  0
    0.7246    2.2757    1.6053 H   0  0  0  0  0  0  0  0  0  0  0  0
    1.8804    1.3297    2.5748 H   0  0  0  0  0  0  0  0  0  0  0  0
    4.5411    0.5574   -1.8468 H   0  0  0  0  0  0  0  0  0  0  0  0
    1.4013   -2.8790    2.3766 H   0  0  0  0  0  0  0  0  0  0  0  0
    1.0319   -1.7030   -1.6749 H   0  0  0  0  0  0  0  0  0  0  0  0
    4.5433    4.5030   -0.0771 H   0  0  0  0  0  0  0  0  0  0  0  0
   -2.1390    0.1060   -1.4990 H   0  0  0  0  0  0  0  0  0  0  0  0
   -1.6296    1.8003   -1.4858 H   0  0  0  0  0  0  0  0  0  0  0  0
    2.7441    4.8112    3.4784 H   0  0  0  0  0  0  0  0  0  0  0  0
    3.2645    3.1180    3.3460 H   0  0  0  0  0  0  0  0  0  0  0  0
    4.3247    4.4371    2.7586 H   0  0  0  0  0  0  0  0  0  0  0  0
    6.9731    4.3654   -2.5599 H   0  0  0  0  0  0  0  0  0  0  0  0
    6.6276    4.4406   -0.8358 H   0  0  0  0  0  0  0  0  0  0  0  0
    5.4046    4.9918   -2.0649 H   0  0  0  0  0  0  0  0  0  0  0  0
   -3.0948    3.5627   -0.5952 H   0  0  0  0  0  0  0  0  0  0  0  0
   -4.3436   -0.5629   -0.6266 H   0  0  0  0  0  0  0  0  0  0  0  0
   -0.4179   -2.0694   -3.2740 H   0  0  0  0  0  0  0  0  0  0  0  0
    1.2505   -2.7202   -3.6076 H   0  0  0  0  0  0  0  0  0  0  0  0
   -0.1563   -3.3391   -4.4621 H   0  0  0  0  0  0  0  0  0  0  0  0
    0.2002   -4.1172    3.7449 H   0  0  0  0  0  0  0  0  0  0  0  0
    0.5861   -5.8119    4.0129 H   0  0  0  0  0  0  0  0  0  0  0  0
    1.8667   -4.7693    3.4078 H   0  0  0  0  0  0  0  0  0  0  0  0
   -2.0666   -7.0408   -0.7454 H   0  0  0  0  0  0  0  0  0  0  0  0
   -2.2818   -5.3266   -1.1620 H   0  0  0  0  0  0  0  0  0  0  0  0
   -2.1309   -5.8294    0.5533 H   0  0  0  0  0  0  0  0  0  0  0  0
   -5.3567    4.2712   -0.1797 H   0  0  0  0  0  0  0  0  0  0  0  0
   -6.6675    0.1401   -0.2010 H   0  0  0  0  0  0  0  0  0  0  0  0
   -8.7946    4.1582    0.3855 H   0  0  0  0  0  0  0  0  0  0  0  0
   -7.4953    4.5628   -0.7309 H   0  0  0  0  0  0  0  0  0  0  0  0
   -7.1970    4.4592    1.0606 H   0  0  0  0  0  0  0  0  0  0  0  0
  1 11  1  0  0  0  0
  1 15  1  0  0  0  0
  2 10  1  0  0  0  0
  2 24  1  0  0  0  0
  3 16  1  0  0  0  0
  3 28  1  0  0  0  0
  4 21  1  0  0  0  0
  4 29  1  0  0  0  0
  5 22  1  0  0  0  0
  5 32  1  0  0  0  0
  6 23  1  0  0  0  0
  6 33  1  0  0  0  0
  7 25  1  0  0  0  0
  7 34  1  0  0  0  0
  8 24  2  0  0  0  0
  9 37  1  0  0  0  0
  9 38  1  0  0  0  0
 10 11  1  0  0  0  0
 10 12  1  0  0  0  0
 10 39  1  0  0  0  0
 11 14  1  0  0  0  0
 11 40  1  0  0  0  0
 12 13  1  0  0  0  0
 12 41  1  0  0  0  0
 12 42  1  0  0  0  0
 13 15  2  0  0  0  0
 13 16  1  0  0  0  0
 14 18  2  0  0  0  0
 14 19  1  0  0  0  0
 15 17  1  0  0  0  0
 16 20  2  0  0  0  0
 17 21  2  0  0  0  0
 17 43  1  0  0  0  0
 18 23  1  0  0  0  0
 18 44  1  0  0  0  0
 19 22  2  0  0  0  0
 19 45  1  0  0  0  0
 20 21  1  0  0  0  0
 20 46  1  0  0  0  0
 22 25  1  0  0  0  0
 23 25  2  0  0  0  0
 24 26  1  0  0  0  0
 26 27  1  0  0  0  0
 26 47  1  0  0  0  0
 26 48  1  0  0  0  0
 27 30  2  0  0  0  0
 27 31  1  0  0  0  0
 28 49  1  0  0  0  0
 28 50  1  0  0  0  0
 28 51  1  0  0  0  0
 29 52  1  0  0  0  0
 29 53  1  0  0  0  0
 29 54  1  0  0  0  0
 30 35  1  0  0  0  0
 30 55  1  0  0  0  0
 31 36  2  0  0  0  0
 31 56  1  0  0  0  0
 32 57  1  0  0  0  0
 32 58  1  0  0  0  0
 32 59  1  0  0  0  0
 33 60  1  0  0  0  0
 33 61  1  0  0  0  0
 33 62  1  0  0  0  0
 34 63  1  0  0  0  0
 34 64  1  0  0  0  0
 34 65  1  0  0  0  0
 35 37  2  0  0  0  0
 35 66  1  0  0  0  0
 36 37  1  0  0  0  0
 36 67  1  0  0  0  0
 38 68  1  0  0  0  0
 38 69  1  0  0  0  0
 38 70  1  0  0  0  0
M  END
> <PUBCHEM_COMPOUND_CID>
122179372

> <PUBCHEM_CONFORMER_RMSD>
1.2

> <PUBCHEM_CONFORMER_DIVERSEORDER>
1
43
10
40
29
16
33
42
22
38
3
21
28
34
9
24
23
13
37
14
32
11
46
27
19
39
7
17
18
20
44
31
12
6
35
15
5
25
36
30
4
41
8
26
45
2

> <PUBCHEM_MMFF94_PARTIAL_CHARGES>
46
1 -0.36
10 0.28
11 0.42
12 0.14
13 -0.14
14 -0.14
15 0.08
16 0.08
17 -0.15
18 -0.15
19 -0.15
2 -0.43
20 -0.15
21 0.08
22 0.08
23 0.08
24 0.66
25 0.08
26 0.2
27 -0.14
28 0.28
29 0.28
3 -0.36
30 -0.15
31 -0.15
32 0.28
33 0.28
34 0.28
35 -0.15
36 -0.15
37 0.08
38 0.28
4 -0.36
43 0.15
44 0.15
45 0.15
46 0.15
5 -0.36
55 0.15
56 0.15
6 -0.36
66 0.15
67 0.15
7 -0.36
8 -0.57
9 -0.36

> <PUBCHEM_EFFECTIVE_ROTOR_COUNT>
11.8

> <PUBCHEM_PHARMACOPHORE_FEATURES>
12
1 1 acceptor
1 3 acceptor
1 4 acceptor
1 5 acceptor
1 6 acceptor
1 7 acceptor
1 8 acceptor
1 9 acceptor
6 1 10 11 12 13 15 rings
6 13 15 16 17 20 21 rings
6 14 18 19 22 23 25 rings
6 27 30 31 35 36 37 rings

> <PUBCHEM_HEAVY_ATOM_COUNT>
38

> <PUBCHEM_ATOM_DEF_STEREO_COUNT>
2

> <PUBCHEM_ATOM_UDEF_STEREO_COUNT>
0

> <PUBCHEM_BOND_DEF_STEREO_COUNT>
0

> <PUBCHEM_BOND_UDEF_STEREO_COUNT>
0

> <PUBCHEM_ISOTOPIC_ATOM_COUNT>
0

> <PUBCHEM_COMPONENT_COUNT>
1

> <PUBCHEM_CACTVS_TAUTO_COUNT>
3

> <PUBCHEM_CONFORMER_ID>
07484F2C00000001

> <PUBCHEM_MMFF94_ENERGY>
162.3884

> <PUBCHEM_FEATURE_SELFOVERLAP>
60.944

> <PUBCHEM_SHAPE_FINGERPRINT>
10554248 39 17982997961861396933
10673678 19 18335995185387769749
10721379 63 18122354475478287301
10815517 723 17762635279587436259
11505856 67 17758402150898391157
11607047 191 17557668539727221176
11991303 11 18264497363195528564
12160290 23 17983011447203209082
12608794 3 17824515605394167178
12788726 201 17759507155767907874
13690498 29 17549850093278819804
13757389 114 18118979228026376180
13944108 23 18195812856047186661
14068700 686 18409450315398180761
14294032 229 18120949557231858720
14556957 393 17178857329130558804
15198563 99 17617386515938322148
15219462 58 17832977631717871808
15400415 2 18411415103769746237
15439362 3 18410017628848971292
15484559 13 18272090461584757420
15968369 153 17190658399619677157
17899979 129 18337118864791290789
19301676 85 18196114174780231502
19315092 285 16305703855954712242
1979834 28 16841044059591645943
21033648 29 18338795740235585840
21641784 216 17039812018992542188
21716022 299 17908999703259493716
21772528 278 18263928894130381525
24180151 248 16898229019181102668
3178227 256 18262796247014188242
3388396 114 16171468368533994916
4058900 60 18410022021904247417
5080951 261 17699863001479835712
5219985 13 18335140920618919548
613672 6 17040609723352850063
9658208 31 18197213861647084448

> <PUBCHEM_SHAPE_MULTIPOLES>
729.2
12.9
10.25
2.42
23.48
15.05
0.19
-29.47
-3.57
-3.29
1.53
-2.71
1.99
-1.56

> <PUBCHEM_SHAPE_SELFOVERLAP>
1569.171

> <PUBCHEM_SHAPE_VOLUME>
403.9

> <PUBCHEM_COORDINATE_TYPE>
2
5
10

$$$$