2787558
  -OEChem-03242010103D

 44 45  0     0  0  0  0  0  0999 V2000
    3.4254    2.2688    0.7660 O   0  0  0  0  0  0  0  0  0  0  0  0
    4.6512   -2.1738   -0.5376 O   0  0  0  0  0  0  0  0  0  0  0  0
    5.3760    0.4297    0.0704 O   0  0  0  0  0  0  0  0  0  0  0  0
   -6.4824   -0.5045    0.0665 O   0  0  0  0  0  0  0  0  0  0  0  0
   -0.2943   -2.2921    0.4981 O   0  0  0  0  0  0  0  0  0  0  0  0
   -3.3051    3.1967   -0.7045 O   0  5  0  0  0  0  0  0  0  0  0  0
   -1.3035    2.3192   -0.4991 O   0  0  0  0  0  0  0  0  0  0  0  0
   -0.9491   -0.0900    0.0209 N   0  0  0  0  0  0  0  0  0  0  0  0
   -2.5525    2.2184   -0.4878 N   0  3  0  0  0  0  0  0  0  0  0  0
    1.3842   -0.7095    0.1995 C   0  0  0  0  0  0  0  0  0  0  0  0
   -2.3632   -0.1739    0.0283 C   0  0  0  0  0  0  0  0  0  0  0  0
    2.3635   -1.6388   -0.1514 C   0  0  0  0  0  0  0  0  0  0  0  0
    1.7456    0.6021    0.5071 C   0  0  0  0  0  0  0  0  0  0  0  0
    3.0864    0.9845    0.4637 C   0  0  0  0  0  0  0  0  0  0  0  0
    3.7043   -1.2563   -0.1945 C   0  0  0  0  0  0  0  0  0  0  0  0
    4.0657    0.0553    0.1130 C   0  0  0  0  0  0  0  0  0  0  0  0
   -0.0132   -1.1091    0.2465 C   0  0  0  0  0  0  0  0  0  0  0  0
   -3.1368    0.9487   -0.2190 C   0  0  0  0  0  0  0  0  0  0  0  0
   -2.9435   -1.4056    0.2882 C   0  0  0  0  0  0  0  0  0  0  0  0
   -4.5272    0.8374   -0.2060 C   0  0  0  0  0  0  0  0  0  0  0  0
   -5.1257   -0.3954    0.0539 C   0  0  0  0  0  0  0  0  0  0  0  0
   -4.3340   -1.5168    0.3009 C   0  0  0  0  0  0  0  0  0  0  0  0
    6.1296    0.2852    1.2720 C   0  0  0  0  0  0  0  0  0  0  0  0
    3.4550    3.2022   -0.3119 C   0  0  0  0  0  0  0  0  0  0  0  0
    4.9712   -2.2879   -1.9227 C   0  0  0  0  0  0  0  0  0  0  0  0
   -7.0275   -1.7946    0.3392 C   0  0  0  0  0  0  0  0  0  0  0  0
    2.0957   -2.6637   -0.3973 H   0  0  0  0  0  0  0  0  0  0  0  0
    1.0212    1.3443    0.8293 H   0  0  0  0  0  0  0  0  0  0  0  0
   -0.5760    0.8166   -0.2268 H   0  0  0  0  0  0  0  0  0  0  0  0
   -2.4105   -2.3217    0.4892 H   0  0  0  0  0  0  0  0  0  0  0  0
   -5.1746    1.6907   -0.3945 H   0  0  0  0  0  0  0  0  0  0  0  0
   -4.7344   -2.5033    0.5095 H   0  0  0  0  0  0  0  0  0  0  0  0
    7.1510    0.6240    1.0783 H   0  0  0  0  0  0  0  0  0  0  0  0
    6.1624   -0.7639    1.5825 H   0  0  0  0  0  0  0  0  0  0  0  0
    5.7030    0.8999    2.0709 H   0  0  0  0  0  0  0  0  0  0  0  0
    2.4630    3.2949   -0.7656 H   0  0  0  0  0  0  0  0  0  0  0  0
    4.1866    2.8967   -1.0666 H   0  0  0  0  0  0  0  0  0  0  0  0
    3.7499    4.1767    0.0867 H   0  0  0  0  0  0  0  0  0  0  0  0
    5.7453   -3.0520   -2.0337 H   0  0  0  0  0  0  0  0  0  0  0  0
    4.0907   -2.5957   -2.4954 H   0  0  0  0  0  0  0  0  0  0  0  0
    5.3580   -1.3393   -2.3085 H   0  0  0  0  0  0  0  0  0  0  0  0
   -6.7504   -2.5200   -0.4332 H   0  0  0  0  0  0  0  0  0  0  0  0
   -8.1177   -1.6975    0.3097 H   0  0  0  0  0  0  0  0  0  0  0  0
   -6.7645   -2.1382    1.3453 H   0  0  0  0  0  0  0  0  0  0  0  0
  1 14  1  0  0  0  0
  1 24  1  0  0  0  0
  2 15  1  0  0  0  0
  2 25  1  0  0  0  0
  3 16  1  0  0  0  0
  3 23  1  0  0  0  0
  4 21  1  0  0  0  0
  4 26  1  0  0  0  0
  5 17  2  0  0  0  0
  6  9  1  0  0  0  0
  7  9  2  0  0  0  0
  8 11  1  0  0  0  0
  8 17  1  0  0  0  0
  8 29  1  0  0  0  0
  9 18  1  0  0  0  0
 10 12  2  0  0  0  0
 10 13  1  0  0  0  0
 10 17  1  0  0  0  0
 11 18  2  0  0  0  0
 11 19  1  0  0  0  0
 12 15  1  0  0  0  0
 12 27  1  0  0  0  0
 13 14  2  0  0  0  0
 13 28  1  0  0  0  0
 14 16  1  0  0  0  0
 15 16  2  0  0  0  0
 18 20  1  0  0  0  0
 19 22  2  0  0  0  0
 19 30  1  0  0  0  0
 20 21  2  0  0  0  0
 20 31  1  0  0  0  0
 21 22  1  0  0  0  0
 22 32  1  0  0  0  0
 23 33  1  0  0  0  0
 23 34  1  0  0  0  0
 23 35  1  0  0  0  0
 24 36  1  0  0  0  0
 24 37  1  0  0  0  0
 24 38  1  0  0  0  0
 25 39  1  0  0  0  0
 25 40  1  0  0  0  0
 25 41  1  0  0  0  0
 26 42  1  0  0  0  0
 26 43  1  0  0  0  0
 26 44  1  0  0  0  0
M  CHG  2   6  -1   9   1
M  END
> <PUBCHEM_COMPOUND_CID>
2787558

> <PUBCHEM_CONFORMER_RMSD>
0.8

> <PUBCHEM_CONFORMER_DIVERSEORDER>
1
13
17
4
11
15
14
6
16
12
7
3
9
5
2
8
10

> <PUBCHEM_MMFF94_PARTIAL_CHARGES>
32
1 -0.36
10 0.09
11 0.12
12 -0.15
13 -0.15
14 0.08
15 0.08
16 0.08
17 0.54
18 0.13
19 -0.15
2 -0.36
20 -0.15
21 0.08
22 -0.15
23 0.28
24 0.28
25 0.28
26 0.28
27 0.15
28 0.15
29 0.37
3 -0.36
30 0.15
31 0.15
32 0.15
4 -0.36
5 -0.57
6 -0.52
7 -0.52
8 -0.55
9 0.91

> <PUBCHEM_EFFECTIVE_ROTOR_COUNT>
8

> <PUBCHEM_PHARMACOPHORE_FEATURES>
11
1 1 acceptor
1 2 acceptor
1 3 acceptor
1 4 acceptor
1 5 acceptor
1 6 acceptor
1 6 anion
1 7 acceptor
1 8 donor
6 10 12 13 14 15 16 rings
6 11 18 19 20 21 22 rings

> <PUBCHEM_HEAVY_ATOM_COUNT>
26

> <PUBCHEM_ATOM_DEF_STEREO_COUNT>
0

> <PUBCHEM_ATOM_UDEF_STEREO_COUNT>
0

> <PUBCHEM_BOND_DEF_STEREO_COUNT>
0

> <PUBCHEM_BOND_UDEF_STEREO_COUNT>
0

> <PUBCHEM_ISOTOPIC_ATOM_COUNT>
0

> <PUBCHEM_COMPONENT_COUNT>
1

> <PUBCHEM_CACTVS_TAUTO_COUNT>
2

> <PUBCHEM_CONFORMER_ID>
002A88E600000001

> <PUBCHEM_MMFF94_ENERGY>
131.1186

> <PUBCHEM_FEATURE_SELFOVERLAP>
55.917

> <PUBCHEM_SHAPE_FINGERPRINT>
10 15 18337380652391687160
10366900 7 17895203168487379611
10670039 82 17968388835986139694
12107183 9 17467054263943599786
12236239 1 17203613666294685875
12916748 109 18335702732474137082
13073987 5 17775006743624765626
13402501 40 18410570716924218137
13533116 47 18202568409900531289
14170010 4 18272651264497557538
14341114 176 18342461417359173030
15196674 1 18338233765128015600
15961568 22 18041562563118003860
17844677 252 18340774753642544027
20645477 70 17775008934522810334
21267235 1 18410298016322820466
21279426 13 18195526996198205254
21315763 129 18408318878371411480
21315764 268 18260539043841857924
21792934 111 18408040715764149489
221357 26 18413109441901342958
22393880 68 18265051323687609518
2297311 6 18337118882424275639
23559900 14 18411413986281125041
239999 70 18341617010179239638
2747138 104 18114759208863719931
335352 9 18411983598836682934
350125 39 18410011048220452128
3545911 37 18272650168985549906
4073 2 18188213220422263450
4214541 1 18339079289807080761
46194498 28 18342745108976917342
5104073 3 18269830930782304450
5281201 14 18342179942772833148
59755656 215 18260830384321823027
9709674 26 18410577309836329714

> <PUBCHEM_SHAPE_MULTIPOLES>
484.02
15.59
3.05
0.92
8.57
1.85
0.18
-4.06
-0.57
-1.11
0.82
-1.16
-0.23
2.1

> <PUBCHEM_SHAPE_SELFOVERLAP>
1032.158

> <PUBCHEM_SHAPE_VOLUME>
270.1

> <PUBCHEM_COORDINATE_TYPE>
2
5
10

$$$$