122179379
  -OEChem-03242010103D

 81 84  0     1  0  0  0  0  0999 V2000
    2.9948    0.0885   -0.7650 O   0  0  0  0  0  0  0  0  0  0  0  0
    0.8938    0.4905    1.1637 O   0  0  0  0  0  0  0  0  0  0  0  0
    4.1343    3.9362    1.9496 O   0  0  0  0  0  0  0  0  0  0  0  0
    4.8882    3.9483   -2.7483 O   0  0  0  0  0  0  0  0  0  0  0  0
   -0.5010   -3.2095   -2.0811 O   0  0  0  0  0  0  0  0  0  0  0  0
    2.1688   -5.4941    1.1732 O   0  0  0  0  0  0  0  0  0  0  0  0
    0.1684   -5.5397   -0.7423 O   0  0  0  0  0  0  0  0  0  0  0  0
    0.1846    0.4068    3.3576 O   0  0  0  0  0  0  0  0  0  0  0  0
   -5.0022    1.1057   -2.6283 O   0  0  0  0  0  0  0  0  0  0  0  0
   -6.9154    1.1850    1.7616 O   0  0  0  0  0  0  0  0  0  0  0  0
   -7.1741    1.5599   -0.9702 O   0  0  0  0  0  0  0  0  0  0  0  0
    2.1995    0.0751    1.5671 C   0  0  1  0  0  0  0  0  0  0  0  0
    2.8799   -0.6994    0.4308 C   0  0  1  0  0  0  0  0  0  0  0  0
    3.0336    1.3070    1.9125 C   0  0  0  0  0  0  0  0  0  0  0  0
    3.5276    1.9929    0.6674 C   0  0  0  0  0  0  0  0  0  0  0  0
    2.1543   -1.9948    0.1172 C   0  0  0  0  0  0  0  0  0  0  0  0
    3.4892    1.3535   -0.5782 C   0  0  0  0  0  0  0  0  0  0  0  0
    4.0559    3.2883    0.7519 C   0  0  0  0  0  0  0  0  0  0  0  0
    3.9342    2.0155   -1.7254 C   0  0  0  0  0  0  0  0  0  0  0  0
    2.4937   -3.1660    0.7942 C   0  0  0  0  0  0  0  0  0  0  0  0
    1.1476   -2.0141   -0.8481 C   0  0  0  0  0  0  0  0  0  0  0  0
    4.5128    3.9425   -0.3927 C   0  0  0  0  0  0  0  0  0  0  0  0
    4.4480    3.3079   -1.6311 C   0  0  0  0  0  0  0  0  0  0  0  0
   -0.0226    0.6166    2.1704 C   0  0  0  0  0  0  0  0  0  0  0  0
    0.4804   -3.2046   -1.1365 C   0  0  0  0  0  0  0  0  0  0  0  0
    1.8265   -4.3566    0.5060 C   0  0  0  0  0  0  0  0  0  0  0  0
   -1.3415    1.0615    1.5806 C   0  0  0  0  0  0  0  0  0  0  0  0
    0.8199   -4.3758   -0.4595 C   0  0  0  0  0  0  0  0  0  0  0  0
   -2.2321   -0.1252    1.2144 C   0  0  0  0  0  0  0  0  0  0  0  0
   -3.5476    0.3232    0.6325 C   0  0  0  0  0  0  0  0  0  0  0  0
    5.3311    3.7580    2.7034 C   0  0  0  0  0  0  0  0  0  0  0  0
   -4.6393    0.5513    1.4706 C   0  0  0  0  0  0  0  0  0  0  0  0
   -3.6742    0.5101   -0.7438 C   0  0  0  0  0  0  0  0  0  0  0  0
    4.7948    3.2388   -3.9828 C   0  0  0  0  0  0  0  0  0  0  0  0
   -0.7858   -1.9694   -2.7260 C   0  0  0  0  0  0  0  0  0  0  0  0
    3.2080   -5.3876    2.1443 C   0  0  0  0  0  0  0  0  0  0  0  0
   -4.8922    0.9250   -1.2823 C   0  0  0  0  0  0  0  0  0  0  0  0
   -5.8572    0.9662    0.9321 C   0  0  0  0  0  0  0  0  0  0  0  0
    0.7222   -6.3573   -1.7708 C   0  0  0  0  0  0  0  0  0  0  0  0
   -5.9837    1.1531   -0.4443 C   0  0  0  0  0  0  0  0  0  0  0  0
   -3.8389    0.8505   -3.4131 C   0  0  0  0  0  0  0  0  0  0  0  0
   -6.7012    0.9704    3.1554 C   0  0  0  0  0  0  0  0  0  0  0  0
   -7.3831    2.9655   -1.0867 C   0  0  0  0  0  0  0  0  0  0  0  0
    2.1329   -0.5762    2.4487 H   0  0  0  0  0  0  0  0  0  0  0  0
    3.9057   -0.9625    0.7285 H   0  0  0  0  0  0  0  0  0  0  0  0
    3.9058    0.9934    2.4980 H   0  0  0  0  0  0  0  0  0  0  0  0
    2.4414    2.0062    2.5138 H   0  0  0  0  0  0  0  0  0  0  0  0
    3.8605    1.4701   -2.6609 H   0  0  0  0  0  0  0  0  0  0  0  0
    3.2818   -3.0891    1.5357 H   0  0  0  0  0  0  0  0  0  0  0  0
    0.9102   -1.0768   -1.3384 H   0  0  0  0  0  0  0  0  0  0  0  0
    4.9173    4.9491   -0.3199 H   0  0  0  0  0  0  0  0  0  0  0  0
   -1.1481    1.6998    0.7093 H   0  0  0  0  0  0  0  0  0  0  0  0
   -1.8316    1.7080    2.3193 H   0  0  0  0  0  0  0  0  0  0  0  0
   -1.7139   -0.7799    0.5021 H   0  0  0  0  0  0  0  0  0  0  0  0
   -2.4093   -0.7498    2.0996 H   0  0  0  0  0  0  0  0  0  0  0  0
    5.2034    4.2529    3.6700 H   0  0  0  0  0  0  0  0  0  0  0  0
    6.1768    4.2200    2.1842 H   0  0  0  0  0  0  0  0  0  0  0  0
    5.5365    2.6978    2.8787 H   0  0  0  0  0  0  0  0  0  0  0  0
   -4.4796    0.3915    2.5317 H   0  0  0  0  0  0  0  0  0  0  0  0
   -2.7904    0.3275   -1.3437 H   0  0  0  0  0  0  0  0  0  0  0  0
    5.1886    3.8971   -4.7641 H   0  0  0  0  0  0  0  0  0  0  0  0
    3.7537    3.0208   -4.2441 H   0  0  0  0  0  0  0  0  0  0  0  0
    5.4197    2.3393   -3.9785 H   0  0  0  0  0  0  0  0  0  0  0  0
   -1.5978   -2.1550   -3.4367 H   0  0  0  0  0  0  0  0  0  0  0  0
    0.0706   -1.6119   -3.3078 H   0  0  0  0  0  0  0  0  0  0  0  0
   -1.1493   -1.2202   -2.0171 H   0  0  0  0  0  0  0  0  0  0  0  0
    3.3486   -6.3843    2.5756 H   0  0  0  0  0  0  0  0  0  0  0  0
    2.9249   -4.7230    2.9678 H   0  0  0  0  0  0  0  0  0  0  0  0
    4.1614   -5.1031    1.6862 H   0  0  0  0  0  0  0  0  0  0  0  0
    0.0934   -7.2454   -1.8781 H   0  0  0  0  0  0  0  0  0  0  0  0
    0.7351   -5.8208   -2.7248 H   0  0  0  0  0  0  0  0  0  0  0  0
    1.7353   -6.6763   -1.5061 H   0  0  0  0  0  0  0  0  0  0  0  0
   -3.5346   -0.1998   -3.3534 H   0  0  0  0  0  0  0  0  0  0  0  0
   -3.0232    1.5374   -3.1626 H   0  0  0  0  0  0  0  0  0  0  0  0
   -4.1065    1.0439   -4.4572 H   0  0  0  0  0  0  0  0  0  0  0  0
   -5.9547    1.6621    3.5605 H   0  0  0  0  0  0  0  0  0  0  0  0
   -6.4620   -0.0765    3.3711 H   0  0  0  0  0  0  0  0  0  0  0  0
   -7.6459    1.1907    3.6636 H   0  0  0  0  0  0  0  0  0  0  0  0
   -8.3729    3.1297   -1.5212 H   0  0  0  0  0  0  0  0  0  0  0  0
   -6.6332    3.4133   -1.7464 H   0  0  0  0  0  0  0  0  0  0  0  0
   -7.3499    3.4430   -0.1023 H   0  0  0  0  0  0  0  0  0  0  0  0
  1 13  1  0  0  0  0
  1 17  1  0  0  0  0
  2 12  1  0  0  0  0
  2 24  1  0  0  0  0
  3 18  1  0  0  0  0
  3 31  1  0  0  0  0
  4 23  1  0  0  0  0
  4 34  1  0  0  0  0
  5 25  1  0  0  0  0
  5 35  1  0  0  0  0
  6 26  1  0  0  0  0
  6 36  1  0  0  0  0
  7 28  1  0  0  0  0
  7 39  1  0  0  0  0
  8 24  2  0  0  0  0
  9 37  1  0  0  0  0
  9 41  1  0  0  0  0
 10 38  1  0  0  0  0
 10 42  1  0  0  0  0
 11 40  1  0  0  0  0
 11 43  1  0  0  0  0
 12 13  1  0  0  0  0
 12 14  1  0  0  0  0
 12 44  1  0  0  0  0
 13 16  1  0  0  0  0
 13 45  1  0  0  0  0
 14 15  1  0  0  0  0
 14 46  1  0  0  0  0
 14 47  1  0  0  0  0
 15 17  2  0  0  0  0
 15 18  1  0  0  0  0
 16 20  2  0  0  0  0
 16 21  1  0  0  0  0
 17 19  1  0  0  0  0
 18 22  2  0  0  0  0
 19 23  2  0  0  0  0
 19 48  1  0  0  0  0
 20 26  1  0  0  0  0
 20 49  1  0  0  0  0
 21 25  2  0  0  0  0
 21 50  1  0  0  0  0
 22 23  1  0  0  0  0
 22 51  1  0  0  0  0
 24 27  1  0  0  0  0
 25 28  1  0  0  0  0
 26 28  2  0  0  0  0
 27 29  1  0  0  0  0
 27 52  1  0  0  0  0
 27 53  1  0  0  0  0
 29 30  1  0  0  0  0
 29 54  1  0  0  0  0
 29 55  1  0  0  0  0
 30 32  2  0  0  0  0
 30 33  1  0  0  0  0
 31 56  1  0  0  0  0
 31 57  1  0  0  0  0
 31 58  1  0  0  0  0
 32 38  1  0  0  0  0
 32 59  1  0  0  0  0
 33 37  2  0  0  0  0
 33 60  1  0  0  0  0
 34 61  1  0  0  0  0
 34 62  1  0  0  0  0
 34 63  1  0  0  0  0
 35 64  1  0  0  0  0
 35 65  1  0  0  0  0
 35 66  1  0  0  0  0
 36 67  1  0  0  0  0
 36 68  1  0  0  0  0
 36 69  1  0  0  0  0
 37 40  1  0  0  0  0
 38 40  2  0  0  0  0
 39 70  1  0  0  0  0
 39 71  1  0  0  0  0
 39 72  1  0  0  0  0
 41 73  1  0  0  0  0
 41 74  1  0  0  0  0
 41 75  1  0  0  0  0
 42 76  1  0  0  0  0
 42 77  1  0  0  0  0
 42 78  1  0  0  0  0
 43 79  1  0  0  0  0
 43 80  1  0  0  0  0
 43 81  1  0  0  0  0
M  END
> <PUBCHEM_COMPOUND_CID>
122179379

> <PUBCHEM_CONFORMER_RMSD>
1.4

> <PUBCHEM_CONFORMER_DIVERSEORDER>
8
24
29
15
18
21
22
27
20
3
12
10
17
6
25
28
23
2
4
19
1
7
5
26
13
11
9
14
16

> <PUBCHEM_MMFF94_PARTIAL_CHARGES>
49
1 -0.36
10 -0.36
11 -0.36
12 0.28
13 0.42
14 0.14
15 -0.14
16 -0.14
17 0.08
18 0.08
19 -0.15
2 -0.43
20 -0.15
21 -0.15
22 -0.15
23 0.08
24 0.66
25 0.08
26 0.08
27 0.06
28 0.08
29 0.14
3 -0.36
30 -0.14
31 0.28
32 -0.15
33 -0.15
34 0.28
35 0.28
36 0.28
37 0.08
38 0.08
39 0.28
4 -0.36
40 0.08
41 0.28
42 0.28
43 0.28
48 0.15
49 0.15
5 -0.36
50 0.15
51 0.15
59 0.15
6 -0.36
60 0.15
7 -0.36
8 -0.57
9 -0.36

> <PUBCHEM_EFFECTIVE_ROTOR_COUNT>
14.8

> <PUBCHEM_PHARMACOPHORE_FEATURES>
14
1 1 acceptor
1 10 acceptor
1 11 acceptor
1 3 acceptor
1 4 acceptor
1 5 acceptor
1 6 acceptor
1 7 acceptor
1 8 acceptor
1 9 acceptor
6 1 12 13 14 15 17 rings
6 15 17 18 19 22 23 rings
6 16 20 21 25 26 28 rings
6 30 32 33 37 38 40 rings

> <PUBCHEM_HEAVY_ATOM_COUNT>
43

> <PUBCHEM_ATOM_DEF_STEREO_COUNT>
2

> <PUBCHEM_ATOM_UDEF_STEREO_COUNT>
0

> <PUBCHEM_BOND_DEF_STEREO_COUNT>
0

> <PUBCHEM_BOND_UDEF_STEREO_COUNT>
0

> <PUBCHEM_ISOTOPIC_ATOM_COUNT>
0

> <PUBCHEM_COMPONENT_COUNT>
1

> <PUBCHEM_CACTVS_TAUTO_COUNT>
4

> <PUBCHEM_CONFORMER_ID>
07484F3300000008

> <PUBCHEM_MMFF94_ENERGY>
195.2239

> <PUBCHEM_FEATURE_SELFOVERLAP>
71.109

> <PUBCHEM_SHAPE_FINGERPRINT>
10675989 125 18131918152144699256
11505856 67 17469336180316137564
11991303 11 18049182234690801814
12655364 74 16451820653620297780
15484559 13 18130520694546171736
19319366 153 18130496487936132267
20775438 99 16558477482477562620
21033650 10 17837771497813981846
21304303 282 17980182412712693834
21772528 278 18126304153194974917
22121540 332 17023190439938108540
24941158 1 18042389245152607006
474144 1 17702375170500525047
5223283 242 17612027071828014169

> <PUBCHEM_SHAPE_MULTIPOLES>
820.36
15.38
8.28
3.65
30
14.43
-1.22
-22.51
-0.24
-14.14
-1.78
-0.38
-2.3
-1.87

> <PUBCHEM_SHAPE_SELFOVERLAP>
1752.211

> <PUBCHEM_SHAPE_VOLUME>
459.7

> <PUBCHEM_COORDINATE_TYPE>
2
5
10

$$$$