122179386
  -OEChem-03242010103D

 71 74  0     1  0  0  0  0  0999 V2000
    2.6409    1.1224   -0.3293 O   0  0  0  0  0  0  0  0  0  0  0  0
   -0.3343   -1.0367    0.0851 O   0  0  0  0  0  0  0  0  0  0  0  0
    4.2411   -3.4266    0.1208 O   0  0  0  0  0  0  0  0  0  0  0  0
    7.2826    0.1978   -0.3824 O   0  0  0  0  0  0  0  0  0  0  0  0
   -2.0574    3.8383   -2.1009 O   0  0  0  0  0  0  0  0  0  0  0  0
   -0.6684    3.9471    2.4812 O   0  0  0  0  0  0  0  0  0  0  0  0
   -2.2312    4.9535    0.4284 O   0  0  0  0  0  0  0  0  0  0  0  0
   -0.5120   -1.8189    2.2430 O   0  0  0  0  0  0  0  0  0  0  0  0
   -4.9917   -1.0459   -1.5676 O   0  0  0  0  0  0  0  0  0  0  0  0
   -6.1528   -3.2729   -0.3759 O   0  0  0  0  0  0  0  0  0  0  0  0
    0.9893   -0.5809    0.3446 C   0  0  2  0  0  0  0  0  0  0  0  0
    1.3079    0.6308   -0.5425 C   0  0  1  0  0  0  0  0  0  0  0  0
    1.9673   -1.7093    0.0277 C   0  0  0  0  0  0  0  0  0  0  0  0
    3.3699   -1.1930   -0.0812 C   0  0  0  0  0  0  0  0  0  0  0  0
    0.3608    1.7874   -0.2822 C   0  0  0  0  0  0  0  0  0  0  0  0
    3.6232    0.1709   -0.2631 C   0  0  0  0  0  0  0  0  0  0  0  0
    4.4481   -2.0866   -0.0293 C   0  0  0  0  0  0  0  0  0  0  0  0
    4.9375    0.6375   -0.3527 C   0  0  0  0  0  0  0  0  0  0  0  0
    0.2757    2.3464    0.9930 C   0  0  0  0  0  0  0  0  0  0  0  0
   -0.4249    2.2915   -1.3187 C   0  0  0  0  0  0  0  0  0  0  0  0
    5.7593   -1.6205   -0.1308 C   0  0  0  0  0  0  0  0  0  0  0  0
    6.0038   -0.2584   -0.2884 C   0  0  0  0  0  0  0  0  0  0  0  0
   -1.2955    3.3548   -1.0801 C   0  0  0  0  0  0  0  0  0  0  0  0
   -0.5950    3.4096    1.2316 C   0  0  0  0  0  0  0  0  0  0  0  0
   -0.9712   -1.6392    1.1256 C   0  0  0  0  0  0  0  0  0  0  0  0
   -1.3805    3.9139    0.1950 C   0  0  0  0  0  0  0  0  0  0  0  0
   -2.3362   -2.0669    0.7277 C   0  0  0  0  0  0  0  0  0  0  0  0
    4.0931   -4.1948   -1.0708 C   0  0  0  0  0  0  0  0  0  0  0  0
   -3.0360   -1.3512   -0.2437 C   0  0  0  0  0  0  0  0  0  0  0  0
   -2.9189   -3.1842    1.3257 C   0  0  0  0  0  0  0  0  0  0  0  0
    8.3253   -0.7737   -0.3089 C   0  0  0  0  0  0  0  0  0  0  0  0
   -4.3186   -1.7528   -0.6173 C   0  0  0  0  0  0  0  0  0  0  0  0
   -1.9098    3.2101   -3.3728 C   0  0  0  0  0  0  0  0  0  0  0  0
    0.1682    3.3729    3.4836 C   0  0  0  0  0  0  0  0  0  0  0  0
   -4.2016   -3.5857    0.9523 C   0  0  0  0  0  0  0  0  0  0  0  0
   -3.5569    4.6250    0.8378 C   0  0  0  0  0  0  0  0  0  0  0  0
   -4.9013   -2.8701   -0.0193 C   0  0  0  0  0  0  0  0  0  0  0  0
   -4.3247    0.0830   -2.1290 C   0  0  0  0  0  0  0  0  0  0  0  0
   -6.6752   -4.4247    0.2837 C   0  0  0  0  0  0  0  0  0  0  0  0
    1.1175   -0.2990    1.3989 H   0  0  0  0  0  0  0  0  0  0  0  0
    1.2238    0.3404   -1.5994 H   0  0  0  0  0  0  0  0  0  0  0  0
    1.6848   -2.1891   -0.9178 H   0  0  0  0  0  0  0  0  0  0  0  0
    1.8918   -2.4764    0.8079 H   0  0  0  0  0  0  0  0  0  0  0  0
    5.1312    1.7001   -0.4785 H   0  0  0  0  0  0  0  0  0  0  0  0
    0.9181    1.9285    1.7596 H   0  0  0  0  0  0  0  0  0  0  0  0
   -0.3192    1.8184   -2.2888 H   0  0  0  0  0  0  0  0  0  0  0  0
    6.5457   -2.3664   -0.0782 H   0  0  0  0  0  0  0  0  0  0  0  0
    3.8483   -5.2221   -0.7872 H   0  0  0  0  0  0  0  0  0  0  0  0
    5.0311   -4.2029   -1.6349 H   0  0  0  0  0  0  0  0  0  0  0  0
    3.2855   -3.8041   -1.6970 H   0  0  0  0  0  0  0  0  0  0  0  0
   -2.5530   -0.4790   -0.6697 H   0  0  0  0  0  0  0  0  0  0  0  0
   -2.3846   -3.7534    2.0820 H   0  0  0  0  0  0  0  0  0  0  0  0
    9.2747   -0.2357   -0.3989 H   0  0  0  0  0  0  0  0  0  0  0  0
    8.2776   -1.4794   -1.1452 H   0  0  0  0  0  0  0  0  0  0  0  0
    8.3361   -1.2800    0.6623 H   0  0  0  0  0  0  0  0  0  0  0  0
   -2.2155    2.1589   -3.3431 H   0  0  0  0  0  0  0  0  0  0  0  0
   -2.5910    3.7182   -4.0634 H   0  0  0  0  0  0  0  0  0  0  0  0
   -0.8982    3.3399   -3.7723 H   0  0  0  0  0  0  0  0  0  0  0  0
   -0.0887    2.3250    3.6732 H   0  0  0  0  0  0  0  0  0  0  0  0
    1.2297    3.5079    3.2497 H   0  0  0  0  0  0  0  0  0  0  0  0
   -0.0231    3.9188    4.4134 H   0  0  0  0  0  0  0  0  0  0  0  0
   -4.5903   -4.4626    1.4584 H   0  0  0  0  0  0  0  0  0  0  0  0
   -4.1127    5.5561    0.9782 H   0  0  0  0  0  0  0  0  0  0  0  0
   -3.5429    4.0796    1.7867 H   0  0  0  0  0  0  0  0  0  0  0  0
   -4.0611    4.0292    0.0703 H   0  0  0  0  0  0  0  0  0  0  0  0
   -5.0025    0.5226   -2.8683 H   0  0  0  0  0  0  0  0  0  0  0  0
   -3.4168   -0.2100   -2.6674 H   0  0  0  0  0  0  0  0  0  0  0  0
   -4.1337    0.8561   -1.3766 H   0  0  0  0  0  0  0  0  0  0  0  0
   -7.6772   -4.6010   -0.1212 H   0  0  0  0  0  0  0  0  0  0  0  0
   -6.7927   -4.2552    1.3595 H   0  0  0  0  0  0  0  0  0  0  0  0
   -6.0821   -5.3191    0.0645 H   0  0  0  0  0  0  0  0  0  0  0  0
  1 12  1  0  0  0  0
  1 16  1  0  0  0  0
  2 11  1  0  0  0  0
  2 25  1  0  0  0  0
  3 17  1  0  0  0  0
  3 28  1  0  0  0  0
  4 22  1  0  0  0  0
  4 31  1  0  0  0  0
  5 23  1  0  0  0  0
  5 33  1  0  0  0  0
  6 24  1  0  0  0  0
  6 34  1  0  0  0  0
  7 26  1  0  0  0  0
  7 36  1  0  0  0  0
  8 25  2  0  0  0  0
  9 32  1  0  0  0  0
  9 38  1  0  0  0  0
 10 37  1  0  0  0  0
 10 39  1  0  0  0  0
 11 12  1  0  0  0  0
 11 13  1  0  0  0  0
 11 40  1  0  0  0  0
 12 15  1  0  0  0  0
 12 41  1  0  0  0  0
 13 14  1  0  0  0  0
 13 42  1  0  0  0  0
 13 43  1  0  0  0  0
 14 16  2  0  0  0  0
 14 17  1  0  0  0  0
 15 19  2  0  0  0  0
 15 20  1  0  0  0  0
 16 18  1  0  0  0  0
 17 21  2  0  0  0  0
 18 22  2  0  0  0  0
 18 44  1  0  0  0  0
 19 24  1  0  0  0  0
 19 45  1  0  0  0  0
 20 23  2  0  0  0  0
 20 46  1  0  0  0  0
 21 22  1  0  0  0  0
 21 47  1  0  0  0  0
 23 26  1  0  0  0  0
 24 26  2  0  0  0  0
 25 27  1  0  0  0  0
 27 29  2  0  0  0  0
 27 30  1  0  0  0  0
 28 48  1  0  0  0  0
 28 49  1  0  0  0  0
 28 50  1  0  0  0  0
 29 32  1  0  0  0  0
 29 51  1  0  0  0  0
 30 35  2  0  0  0  0
 30 52  1  0  0  0  0
 31 53  1  0  0  0  0
 31 54  1  0  0  0  0
 31 55  1  0  0  0  0
 32 37  2  0  0  0  0
 33 56  1  0  0  0  0
 33 57  1  0  0  0  0
 33 58  1  0  0  0  0
 34 59  1  0  0  0  0
 34 60  1  0  0  0  0
 34 61  1  0  0  0  0
 35 37  1  0  0  0  0
 35 62  1  0  0  0  0
 36 63  1  0  0  0  0
 36 64  1  0  0  0  0
 36 65  1  0  0  0  0
 38 66  1  0  0  0  0
 38 67  1  0  0  0  0
 38 68  1  0  0  0  0
 39 69  1  0  0  0  0
 39 70  1  0  0  0  0
 39 71  1  0  0  0  0
M  END
> <PUBCHEM_COMPOUND_CID>
122179386

> <PUBCHEM_CONFORMER_RMSD>
1.2

> <PUBCHEM_CONFORMER_DIVERSEORDER>
1
17
12
21
18
10
13
15
14
19
7
11
5
16
20
6
9
8
4
2
3

> <PUBCHEM_MMFF94_PARTIAL_CHARGES>
46
1 -0.36
10 -0.36
11 0.28
12 0.42
13 0.14
14 -0.14
15 -0.14
16 0.08
17 0.08
18 -0.15
19 -0.15
2 -0.43
20 -0.15
21 -0.15
22 0.08
23 0.08
24 0.08
25 0.63
26 0.08
27 0.09
28 0.28
29 -0.15
3 -0.36
30 -0.15
31 0.28
32 0.08
33 0.28
34 0.28
35 -0.15
36 0.28
37 0.08
38 0.28
39 0.28
4 -0.36
44 0.15
45 0.15
46 0.15
47 0.15
5 -0.36
51 0.15
52 0.15
6 -0.36
62 0.15
7 -0.36
8 -0.57
9 -0.36

> <PUBCHEM_EFFECTIVE_ROTOR_COUNT>
11.8

> <PUBCHEM_PHARMACOPHORE_FEATURES>
13
1 1 acceptor
1 10 acceptor
1 3 acceptor
1 4 acceptor
1 5 acceptor
1 6 acceptor
1 7 acceptor
1 8 acceptor
1 9 acceptor
6 1 11 12 13 14 16 rings
6 14 16 17 18 21 22 rings
6 15 19 20 23 24 26 rings
6 27 29 30 32 35 37 rings

> <PUBCHEM_HEAVY_ATOM_COUNT>
39

> <PUBCHEM_ATOM_DEF_STEREO_COUNT>
2

> <PUBCHEM_ATOM_UDEF_STEREO_COUNT>
0

> <PUBCHEM_BOND_DEF_STEREO_COUNT>
0

> <PUBCHEM_BOND_UDEF_STEREO_COUNT>
0

> <PUBCHEM_ISOTOPIC_ATOM_COUNT>
0

> <PUBCHEM_COMPONENT_COUNT>
1

> <PUBCHEM_CACTVS_TAUTO_COUNT>
1

> <PUBCHEM_CONFORMER_ID>
07484F3A00000001

> <PUBCHEM_MMFF94_ENERGY>
182.8801

> <PUBCHEM_FEATURE_SELFOVERLAP>
66.026

> <PUBCHEM_SHAPE_FINGERPRINT>
10050765 1 18266744576723236830
10653451 467 17903345258418679328
10930396 42 18048854559288660272
11093857 51 16815458857540621917
11720765 8 18124035899778238945
11991303 11 17901404298119652639
12156800 1 18118373225272969569
12166972 35 17986396805046188995
12440605 4 18044663001140076498
12788726 201 18335975403026568610
13631057 29 18409169918220903862
140371 6 18188223090826327678
14068700 675 18335423512861483900
14068700 686 18413107265202204486
14681490 219 18334574659171807667
150020 26 17831019400891591873
15200665 1 17978235958633985531
15276724 80 18339925905033325263
15351339 4 17749654256109922835
15890870 6 18192707853423931765
15927050 60 18047477716848111178
19301676 85 16757490942157091726
19319366 153 17335051257738122185
20642791 13 18334018264108372846
21049683 271 18265618873545587222
21133410 62 18043802093270219413
23559900 14 17903073679452839387
255183 313 18121519976397399225
283562 15 18334577928074280978
3383291 50 16824748064338780058
4408954 87 17411658751535462073
469060 322 16807032951913013621
50150288 127 17558549102121361657
5171179 24 17916851521551692888
5969126 39 18411698803328188462
59755656 520 18050849910082955412
6004065 56 18195528327369756306

> <PUBCHEM_SHAPE_MULTIPOLES>
743.91
14.61
7.47
2.1
17.03
4.78
0.2
-18.27
-3.61
-10.42
1.5
-2
2.84
1.55

> <PUBCHEM_SHAPE_SELFOVERLAP>
1604.701

> <PUBCHEM_SHAPE_VOLUME>
412.4

> <PUBCHEM_COORDINATE_TYPE>
2
5
10

$$$$