71492427
  -OEChem-03242010103D

 67 70  0     1  0  0  0  0  0999 V2000
    1.0863   -1.5640   -0.8667 O   0  0  0  0  0  0  0  0  0  0  0  0
    0.1859    0.5099    0.9175 O   0  0  0  0  0  0  0  0  0  0  0  0
    4.8229   -0.2093    1.9036 O   0  0  0  0  0  0  0  0  0  0  0  0
    5.4116   -1.0939   -2.7343 O   0  0  0  0  0  0  0  0  0  0  0  0
   -3.5521   -0.5813   -2.3992 O   0  0  0  0  0  0  0  0  0  0  0  0
   -4.0740   -3.8811    1.0324 O   0  0  0  0  0  0  0  0  0  0  0  0
   -5.1598   -2.3584   -1.0109 O   0  0  0  0  0  0  0  0  0  0  0  0
   -0.3545    1.1854    3.0508 O   0  0  0  0  0  0  0  0  0  0  0  0
   -1.5806    6.3124   -0.5564 O   0  0  0  0  0  0  0  0  0  0  0  0
    0.5537   -0.7802    1.4077 C   0  0  1  0  0  0  0  0  0  0  0  0
    0.3276   -1.8401    0.3217 C   0  0  1  0  0  0  0  0  0  0  0  0
    2.0289   -0.7650    1.8031 C   0  0  0  0  0  0  0  0  0  0  0  0
    2.9153   -0.8627    0.5909 C   0  0  0  0  0  0  0  0  0  0  0  0
   -1.1409   -1.9788   -0.0346 C   0  0  0  0  0  0  0  0  0  0  0  0
    2.4053   -1.2580   -0.6522 C   0  0  0  0  0  0  0  0  0  0  0  0
    4.2819   -0.5734    0.7056 C   0  0  0  0  0  0  0  0  0  0  0  0
    3.2413   -1.3228   -1.7698 C   0  0  0  0  0  0  0  0  0  0  0  0
   -1.9474   -2.8743    0.6675 C   0  0  0  0  0  0  0  0  0  0  0  0
   -1.6843   -1.2105   -1.0643 C   0  0  0  0  0  0  0  0  0  0  0  0
    5.1181   -0.6524   -0.4086 C   0  0  0  0  0  0  0  0  0  0  0  0
    4.5971   -1.0228   -1.6463 C   0  0  0  0  0  0  0  0  0  0  0  0
   -3.0341   -1.3377   -1.3918 C   0  0  0  0  0  0  0  0  0  0  0  0
   -3.2974   -3.0015    0.3401 C   0  0  0  0  0  0  0  0  0  0  0  0
   -0.2510    1.3938    1.8520 C   0  0  0  0  0  0  0  0  0  0  0  0
   -3.8407   -2.2333   -0.6897 C   0  0  0  0  0  0  0  0  0  0  0  0
   -0.6002    2.6899    1.2175 C   0  0  0  0  0  0  0  0  0  0  0  0
    5.3152   -1.2571    2.7354 C   0  0  0  0  0  0  0  0  0  0  0  0
   -0.4566    2.8532   -0.1604 C   0  0  0  0  0  0  0  0  0  0  0  0
   -1.0732    3.7439    1.9991 C   0  0  0  0  0  0  0  0  0  0  0  0
    6.7881   -0.7736   -2.5368 C   0  0  0  0  0  0  0  0  0  0  0  0
   -2.6592    0.3092   -3.0658 C   0  0  0  0  0  0  0  0  0  0  0  0
   -3.4403   -4.6274    2.0697 C   0  0  0  0  0  0  0  0  0  0  0  0
   -6.0753   -1.5041   -0.3289 C   0  0  0  0  0  0  0  0  0  0  0  0
   -0.7860    4.0703   -0.7566 C   0  0  0  0  0  0  0  0  0  0  0  0
   -1.4026    4.9612    1.4030 C   0  0  0  0  0  0  0  0  0  0  0  0
   -1.2591    5.1243    0.0252 C   0  0  0  0  0  0  0  0  0  0  0  0
   -1.4098    6.4104   -1.9696 C   0  0  0  0  0  0  0  0  0  0  0  0
   -0.0538   -1.0374    2.2857 H   0  0  0  0  0  0  0  0  0  0  0  0
    0.6698   -2.8196    0.6874 H   0  0  0  0  0  0  0  0  0  0  0  0
    2.2595    0.1494    2.3615 H   0  0  0  0  0  0  0  0  0  0  0  0
    2.2338   -1.6290    2.4461 H   0  0  0  0  0  0  0  0  0  0  0  0
    2.8376   -1.6140   -2.7366 H   0  0  0  0  0  0  0  0  0  0  0  0
   -1.4703   -3.4420    1.4592 H   0  0  0  0  0  0  0  0  0  0  0  0
   -1.0219   -0.5187   -1.5719 H   0  0  0  0  0  0  0  0  0  0  0  0
    6.1639   -0.4108   -0.2491 H   0  0  0  0  0  0  0  0  0  0  0  0
    5.6226   -0.8205    3.6896 H   0  0  0  0  0  0  0  0  0  0  0  0
    6.1866   -1.7299    2.2714 H   0  0  0  0  0  0  0  0  0  0  0  0
    4.5432   -2.0080    2.9279 H   0  0  0  0  0  0  0  0  0  0  0  0
   -0.0920    2.0593   -0.8062 H   0  0  0  0  0  0  0  0  0  0  0  0
   -1.1924    3.6369    3.0739 H   0  0  0  0  0  0  0  0  0  0  0  0
    7.2868   -0.8810   -3.5057 H   0  0  0  0  0  0  0  0  0  0  0  0
    7.2705   -1.4772   -1.8498 H   0  0  0  0  0  0  0  0  0  0  0  0
    6.9183    0.2681   -2.2244 H   0  0  0  0  0  0  0  0  0  0  0  0
   -1.8566   -0.2312   -3.5795 H   0  0  0  0  0  0  0  0  0  0  0  0
   -2.2781    1.0808   -2.3883 H   0  0  0  0  0  0  0  0  0  0  0  0
   -3.2380    0.8255   -3.8389 H   0  0  0  0  0  0  0  0  0  0  0  0
   -3.0741   -3.9756    2.8703 H   0  0  0  0  0  0  0  0  0  0  0  0
   -4.2043   -5.2748    2.5129 H   0  0  0  0  0  0  0  0  0  0  0  0
   -2.6582   -5.2846    1.6747 H   0  0  0  0  0  0  0  0  0  0  0  0
   -7.0830   -1.7218   -0.6929 H   0  0  0  0  0  0  0  0  0  0  0  0
   -5.8485   -0.4532   -0.5350 H   0  0  0  0  0  0  0  0  0  0  0  0
   -6.0454   -1.6897    0.7495 H   0  0  0  0  0  0  0  0  0  0  0  0
   -0.6511    4.1290   -1.8313 H   0  0  0  0  0  0  0  0  0  0  0  0
   -1.7707    5.7787    2.0169 H   0  0  0  0  0  0  0  0  0  0  0  0
   -1.7126    7.4210   -2.2624 H   0  0  0  0  0  0  0  0  0  0  0  0
   -2.0645    5.7132   -2.5034 H   0  0  0  0  0  0  0  0  0  0  0  0
   -0.3590    6.2957   -2.2568 H   0  0  0  0  0  0  0  0  0  0  0  0
  1 11  1  0  0  0  0
  1 15  1  0  0  0  0
  2 10  1  0  0  0  0
  2 24  1  0  0  0  0
  3 16  1  0  0  0  0
  3 27  1  0  0  0  0
  4 21  1  0  0  0  0
  4 30  1  0  0  0  0
  5 22  1  0  0  0  0
  5 31  1  0  0  0  0
  6 23  1  0  0  0  0
  6 32  1  0  0  0  0
  7 25  1  0  0  0  0
  7 33  1  0  0  0  0
  8 24  2  0  0  0  0
  9 36  1  0  0  0  0
  9 37  1  0  0  0  0
 10 11  1  0  0  0  0
 10 12  1  0  0  0  0
 10 38  1  0  0  0  0
 11 14  1  0  0  0  0
 11 39  1  0  0  0  0
 12 13  1  0  0  0  0
 12 40  1  0  0  0  0
 12 41  1  0  0  0  0
 13 15  2  0  0  0  0
 13 16  1  0  0  0  0
 14 18  2  0  0  0  0
 14 19  1  0  0  0  0
 15 17  1  0  0  0  0
 16 20  2  0  0  0  0
 17 21  2  0  0  0  0
 17 42  1  0  0  0  0
 18 23  1  0  0  0  0
 18 43  1  0  0  0  0
 19 22  2  0  0  0  0
 19 44  1  0  0  0  0
 20 21  1  0  0  0  0
 20 45  1  0  0  0  0
 22 25  1  0  0  0  0
 23 25  2  0  0  0  0
 24 26  1  0  0  0  0
 26 28  2  0  0  0  0
 26 29  1  0  0  0  0
 27 46  1  0  0  0  0
 27 47  1  0  0  0  0
 27 48  1  0  0  0  0
 28 34  1  0  0  0  0
 28 49  1  0  0  0  0
 29 35  2  0  0  0  0
 29 50  1  0  0  0  0
 30 51  1  0  0  0  0
 30 52  1  0  0  0  0
 30 53  1  0  0  0  0
 31 54  1  0  0  0  0
 31 55  1  0  0  0  0
 31 56  1  0  0  0  0
 32 57  1  0  0  0  0
 32 58  1  0  0  0  0
 32 59  1  0  0  0  0
 33 60  1  0  0  0  0
 33 61  1  0  0  0  0
 33 62  1  0  0  0  0
 34 36  2  0  0  0  0
 34 63  1  0  0  0  0
 35 36  1  0  0  0  0
 35 64  1  0  0  0  0
 37 65  1  0  0  0  0
 37 66  1  0  0  0  0
 37 67  1  0  0  0  0
M  END
> <PUBCHEM_COMPOUND_CID>
71492427

> <PUBCHEM_CONFORMER_RMSD>
1.2

> <PUBCHEM_CONFORMER_DIVERSEORDER>
1
5
8
20
10
11
7
13
6
19
2
12
14
15
9
17
16
18
4
3

> <PUBCHEM_MMFF94_PARTIAL_CHARGES>
45
1 -0.36
10 0.28
11 0.42
12 0.14
13 -0.14
14 -0.14
15 0.08
16 0.08
17 -0.15
18 -0.15
19 -0.15
2 -0.43
20 -0.15
21 0.08
22 0.08
23 0.08
24 0.63
25 0.08
26 0.09
27 0.28
28 -0.15
29 -0.15
3 -0.36
30 0.28
31 0.28
32 0.28
33 0.28
34 -0.15
35 -0.15
36 0.08
37 0.28
4 -0.36
42 0.15
43 0.15
44 0.15
45 0.15
49 0.15
5 -0.36
50 0.15
6 -0.36
63 0.15
64 0.15
7 -0.36
8 -0.57
9 -0.36

> <PUBCHEM_EFFECTIVE_ROTOR_COUNT>
10.8

> <PUBCHEM_PHARMACOPHORE_FEATURES>
12
1 1 acceptor
1 3 acceptor
1 4 acceptor
1 5 acceptor
1 6 acceptor
1 7 acceptor
1 8 acceptor
1 9 acceptor
6 1 10 11 12 13 15 rings
6 13 15 16 17 20 21 rings
6 14 18 19 22 23 25 rings
6 26 28 29 34 35 36 rings

> <PUBCHEM_HEAVY_ATOM_COUNT>
37

> <PUBCHEM_ATOM_DEF_STEREO_COUNT>
2

> <PUBCHEM_ATOM_UDEF_STEREO_COUNT>
0

> <PUBCHEM_BOND_DEF_STEREO_COUNT>
0

> <PUBCHEM_BOND_UDEF_STEREO_COUNT>
0

> <PUBCHEM_ISOTOPIC_ATOM_COUNT>
0

> <PUBCHEM_COMPONENT_COUNT>
1

> <PUBCHEM_CACTVS_TAUTO_COUNT>
1

> <PUBCHEM_CONFORMER_ID>
0442E34B00000001

> <PUBCHEM_MMFF94_ENERGY>
166.6895

> <PUBCHEM_FEATURE_SELFOVERLAP>
60.944

> <PUBCHEM_SHAPE_FINGERPRINT>
10764073 3 13252591182199765500
11477941 20 18196119770673880756
11991303 11 17981344299448596743
12160290 23 17986389997042587322
12741549 16 18200016482605337003
12788726 201 18337105670492923735
14294032 229 18195259810187863520
15198563 99 18339657671367332236
15219462 58 18053067732974799906
15444296 121 18267049248670244243
15463212 79 17763163761879661024
1813 80 18059579156149713914
19301676 85 16257891558920278886
19319366 153 17117448006738408229
21285901 2 17917991689692962886
21304303 282 17977358578451199186
21365058 113 18268721686943589415
21641784 216 18410579487384580092
21772528 278 17697053443506212180
23559900 14 17534605304198242759
24771750 20 17040928031652385236
24893989 43 16257771961376927765
437795 70 17701228405859162053
44802255 64 16679010129853553646
469060 322 18410018697741589201
46939830 39 18337408110112705545
5080951 261 17631164178893883118
5081480 168 18197764691307596453
58260988 587 17111026274705906883
6086070 43 18191843808677230411
9658208 31 17841997685314078896

> <PUBCHEM_SHAPE_MULTIPOLES>
708.62
10.94
7.94
2.96
13.12
16.54
-0.28
-11.41
-4.98
-12.97
0.57
1.98
0.21
1.04

> <PUBCHEM_SHAPE_SELFOVERLAP>
1532.553

> <PUBCHEM_SHAPE_VOLUME>
390.8

> <PUBCHEM_COORDINATE_TYPE>
2
5
10

$$$$