122179399
  -OEChem-03242010103D

 74 77  0     1  0  0  0  0  0999 V2000
    3.5705    0.6706   -0.1814 O   0  0  0  0  0  0  0  0  0  0  0  0
    0.1109   -0.5840   -0.0303 O   0  0  0  0  0  0  0  0  0  0  0  0
    1.5292   -2.8838    0.0218 O   0  0  0  0  0  0  0  0  0  0  0  0
    3.7595   -4.1843   -0.2708 O   0  0  0  0  0  0  0  0  0  0  0  0
   -0.0390    4.6855   -2.0549 O   0  0  0  0  0  0  0  0  0  0  0  0
    1.0396    4.2405    2.5900 O   0  0  0  0  0  0  0  0  0  0  0  0
    7.6991   -1.5823   -0.7535 O   0  0  0  0  0  0  0  0  0  0  0  0
   -0.0427    5.7202    0.5139 O   0  0  0  0  0  0  0  0  0  0  0  0
   -0.4239   -1.4059    2.0617 O   0  0  0  0  0  0  0  0  0  0  0  0
   -6.6833   -0.1850   -1.9024 O   0  0  0  0  0  0  0  0  0  0  0  0
   -8.4775   -1.8284   -0.5577 O   0  0  0  0  0  0  0  0  0  0  0  0
    2.1695    0.5969   -0.4898 C   0  0  1  0  0  0  0  0  0  0  0  0
    1.4774   -0.4909    0.3333 C   0  0  2  0  0  0  0  0  0  0  0  0
    1.5777    1.9678   -0.2218 C   0  0  0  0  0  0  0  0  0  0  0  0
    2.1365   -1.8196    0.0343 C   0  0  0  0  0  0  0  0  0  0  0  0
    3.5912   -1.7688   -0.2112 C   0  0  0  0  0  0  0  0  0  0  0  0
    4.2258   -0.5269   -0.2888 C   0  0  0  0  0  0  0  0  0  0  0  0
    4.3296   -2.9487   -0.3363 C   0  0  0  0  0  0  0  0  0  0  0  0
    1.5777    2.4857    1.0734 C   0  0  0  0  0  0  0  0  0  0  0  0
    1.0338    2.7103   -1.2699 C   0  0  0  0  0  0  0  0  0  0  0  0
    5.6103   -0.4667   -0.4575 C   0  0  0  0  0  0  0  0  0  0  0  0
    0.4897    3.9706   -1.0228 C   0  0  0  0  0  0  0  0  0  0  0  0
    1.0335    3.7460    1.3205 C   0  0  0  0  0  0  0  0  0  0  0  0
    6.3505   -1.6431   -0.5789 C   0  0  0  0  0  0  0  0  0  0  0  0
    5.7106   -2.8812   -0.5231 C   0  0  0  0  0  0  0  0  0  0  0  0
    0.4895    4.4884    0.2724 C   0  0  0  0  0  0  0  0  0  0  0  0
   -0.7341   -1.0593    0.9330 C   0  0  0  0  0  0  0  0  0  0  0  0
   -2.1045   -1.0838    0.3732 C   0  0  0  0  0  0  0  0  0  0  0  0
    3.6721   -4.7900    1.0176 C   0  0  0  0  0  0  0  0  0  0  0  0
    0.0012    4.0836   -3.3475 C   0  0  0  0  0  0  0  0  0  0  0  0
    1.6149    3.4175    3.6030 C   0  0  0  0  0  0  0  0  0  0  0  0
    8.3948   -2.8225   -0.8704 C   0  0  0  0  0  0  0  0  0  0  0  0
   -3.1212   -1.5150    1.1332 C   0  0  0  0  0  0  0  0  0  0  0  0
   -1.4298    5.7727    0.8407 C   0  0  0  0  0  0  0  0  0  0  0  0
   -4.5236   -1.5953    0.6879 C   0  0  0  0  0  0  0  0  0  0  0  0
   -4.9506   -0.8460   -0.4084 C   0  0  0  0  0  0  0  0  0  0  0  0
   -5.4239   -2.4199    1.3623 C   0  0  0  0  0  0  0  0  0  0  0  0
   -6.2781   -0.9213   -0.8303 C   0  0  0  0  0  0  0  0  0  0  0  0
   -6.7514   -2.4951    0.9406 C   0  0  0  0  0  0  0  0  0  0  0  0
   -7.1785   -1.7460   -0.1557 C   0  0  0  0  0  0  0  0  0  0  0  0
   -5.7007    0.6322   -2.5357 C   0  0  0  0  0  0  0  0  0  0  0  0
   -9.3321   -2.6946    0.1864 C   0  0  0  0  0  0  0  0  0  0  0  0
    2.0690    0.3737   -1.5623 H   0  0  0  0  0  0  0  0  0  0  0  0
    1.6047   -0.3113    1.4089 H   0  0  0  0  0  0  0  0  0  0  0  0
    2.0261    1.8761    1.8496 H   0  0  0  0  0  0  0  0  0  0  0  0
    1.0601    2.2589   -2.2557 H   0  0  0  0  0  0  0  0  0  0  0  0
    6.1131    0.4962   -0.5044 H   0  0  0  0  0  0  0  0  0  0  0  0
    6.2352   -3.8270   -0.6138 H   0  0  0  0  0  0  0  0  0  0  0  0
   -2.2166   -0.7668   -0.6569 H   0  0  0  0  0  0  0  0  0  0  0  0
    3.0194   -5.6640    0.9418 H   0  0  0  0  0  0  0  0  0  0  0  0
    3.2519   -4.1014    1.7576 H   0  0  0  0  0  0  0  0  0  0  0  0
    4.6637   -5.1212    1.3416 H   0  0  0  0  0  0  0  0  0  0  0  0
    1.0302    3.9277   -3.6889 H   0  0  0  0  0  0  0  0  0  0  0  0
   -0.5957    3.1659   -3.3845 H   0  0  0  0  0  0  0  0  0  0  0  0
   -0.4605    4.7899   -4.0455 H   0  0  0  0  0  0  0  0  0  0  0  0
    1.0588    2.4820    3.7281 H   0  0  0  0  0  0  0  0  0  0  0  0
    1.5306    3.9645    4.5479 H   0  0  0  0  0  0  0  0  0  0  0  0
    2.6831    3.2495    3.4286 H   0  0  0  0  0  0  0  0  0  0  0  0
    9.4558   -2.5862   -1.0024 H   0  0  0  0  0  0  0  0  0  0  0  0
    8.0791   -3.3792   -1.7593 H   0  0  0  0  0  0  0  0  0  0  0  0
    8.3123   -3.4185    0.0449 H   0  0  0  0  0  0  0  0  0  0  0  0
   -2.9393   -1.8476    2.1527 H   0  0  0  0  0  0  0  0  0  0  0  0
   -1.7037    6.8185    1.0043 H   0  0  0  0  0  0  0  0  0  0  0  0
   -1.6310    5.2109    1.7583 H   0  0  0  0  0  0  0  0  0  0  0  0
   -2.0347    5.3773    0.0185 H   0  0  0  0  0  0  0  0  0  0  0  0
   -4.2389   -0.1924   -0.8958 H   0  0  0  0  0  0  0  0  0  0  0  0
   -5.1071   -3.0115    2.2180 H   0  0  0  0  0  0  0  0  0  0  0  0
   -7.3939   -3.1562    1.5119 H   0  0  0  0  0  0  0  0  0  0  0  0
   -6.1954    1.1394   -3.3708 H   0  0  0  0  0  0  0  0  0  0  0  0
   -4.8910    0.0330   -2.9662 H   0  0  0  0  0  0  0  0  0  0  0  0
   -5.3327    1.4159   -1.8646 H   0  0  0  0  0  0  0  0  0  0  0  0
  -10.3257   -2.6372   -0.2706 H   0  0  0  0  0  0  0  0  0  0  0  0
   -9.4402   -2.3613    1.2242 H   0  0  0  0  0  0  0  0  0  0  0  0
   -9.0097   -3.7389    0.1149 H   0  0  0  0  0  0  0  0  0  0  0  0
  1 12  1  0  0  0  0
  1 17  1  0  0  0  0
  2 13  1  0  0  0  0
  2 27  1  0  0  0  0
  3 15  2  0  0  0  0
  4 18  1  0  0  0  0
  4 29  1  0  0  0  0
  5 22  1  0  0  0  0
  5 30  1  0  0  0  0
  6 23  1  0  0  0  0
  6 31  1  0  0  0  0
  7 24  1  0  0  0  0
  7 32  1  0  0  0  0
  8 26  1  0  0  0  0
  8 34  1  0  0  0  0
  9 27  2  0  0  0  0
 10 38  1  0  0  0  0
 10 41  1  0  0  0  0
 11 40  1  0  0  0  0
 11 42  1  0  0  0  0
 12 13  1  0  0  0  0
 12 14  1  0  0  0  0
 12 43  1  0  0  0  0
 13 15  1  0  0  0  0
 13 44  1  0  0  0  0
 14 19  2  0  0  0  0
 14 20  1  0  0  0  0
 15 16  1  0  0  0  0
 16 17  2  0  0  0  0
 16 18  1  0  0  0  0
 17 21  1  0  0  0  0
 18 25  2  0  0  0  0
 19 23  1  0  0  0  0
 19 45  1  0  0  0  0
 20 22  2  0  0  0  0
 20 46  1  0  0  0  0
 21 24  2  0  0  0  0
 21 47  1  0  0  0  0
 22 26  1  0  0  0  0
 23 26  2  0  0  0  0
 24 25  1  0  0  0  0
 25 48  1  0  0  0  0
 27 28  1  0  0  0  0
 28 33  2  0  0  0  0
 28 49  1  0  0  0  0
 29 50  1  0  0  0  0
 29 51  1  0  0  0  0
 29 52  1  0  0  0  0
 30 53  1  0  0  0  0
 30 54  1  0  0  0  0
 30 55  1  0  0  0  0
 31 56  1  0  0  0  0
 31 57  1  0  0  0  0
 31 58  1  0  0  0  0
 32 59  1  0  0  0  0
 32 60  1  0  0  0  0
 32 61  1  0  0  0  0
 33 35  1  0  0  0  0
 33 62  1  0  0  0  0
 34 63  1  0  0  0  0
 34 64  1  0  0  0  0
 34 65  1  0  0  0  0
 35 36  2  0  0  0  0
 35 37  1  0  0  0  0
 36 38  1  0  0  0  0
 36 66  1  0  0  0  0
 37 39  2  0  0  0  0
 37 67  1  0  0  0  0
 38 40  2  0  0  0  0
 39 40  1  0  0  0  0
 39 68  1  0  0  0  0
 41 69  1  0  0  0  0
 41 70  1  0  0  0  0
 41 71  1  0  0  0  0
 42 72  1  0  0  0  0
 42 73  1  0  0  0  0
 42 74  1  0  0  0  0
M  END
> <PUBCHEM_COMPOUND_CID>
122179399

> <PUBCHEM_CONFORMER_RMSD>
1.2

> <PUBCHEM_CONFORMER_DIVERSEORDER>
2
11
17
9
18
7
16
10
15
3
13
8
12
5
4
6
14
1

> <PUBCHEM_MMFF94_PARTIAL_CHARGES>
51
1 -0.36
10 -0.36
11 -0.36
12 0.42
13 0.34
14 -0.14
15 0.42
16 0.09
17 0.08
18 0.08
19 -0.15
2 -0.43
20 -0.15
21 -0.15
22 0.08
23 0.08
24 0.08
25 -0.15
26 0.08
27 0.71
28 -0.14
29 0.28
3 -0.57
30 0.28
31 0.28
32 0.28
33 -0.18
34 0.28
35 0.03
36 -0.15
37 -0.15
38 0.08
39 -0.15
4 -0.36
40 0.08
41 0.28
42 0.28
45 0.15
46 0.15
47 0.15
48 0.15
49 0.15
5 -0.36
6 -0.36
62 0.15
66 0.15
67 0.15
68 0.15
7 -0.36
8 -0.36
9 -0.57

> <PUBCHEM_EFFECTIVE_ROTOR_COUNT>
12.6

> <PUBCHEM_PHARMACOPHORE_FEATURES>
14
1 1 acceptor
1 10 acceptor
1 11 acceptor
1 3 acceptor
1 4 acceptor
1 5 acceptor
1 6 acceptor
1 7 acceptor
1 8 acceptor
1 9 acceptor
6 1 12 13 15 16 17 rings
6 14 19 20 22 23 26 rings
6 16 17 18 21 24 25 rings
6 35 36 37 38 39 40 rings

> <PUBCHEM_HEAVY_ATOM_COUNT>
42

> <PUBCHEM_ATOM_DEF_STEREO_COUNT>
2

> <PUBCHEM_ATOM_UDEF_STEREO_COUNT>
0

> <PUBCHEM_BOND_DEF_STEREO_COUNT>
1

> <PUBCHEM_BOND_UDEF_STEREO_COUNT>
0

> <PUBCHEM_ISOTOPIC_ATOM_COUNT>
0

> <PUBCHEM_COMPONENT_COUNT>
1

> <PUBCHEM_CACTVS_TAUTO_COUNT>
1

> <PUBCHEM_CONFORMER_ID>
07484F4700000002

> <PUBCHEM_MMFF94_ENERGY>
190.7498

> <PUBCHEM_FEATURE_SELFOVERLAP>
71.116

> <PUBCHEM_SHAPE_FINGERPRINT>
10050765 1 17977673005530906062
10079526 1005 11241971477608510824
102385 1 17691414005760625902
10462674 125 18130799914722938242
10462674 369 18334299742599271647
10653451 467 18264200482546063480
11093857 51 17901396906434087141
11115154 58 18339649949432416907
11297750 10 18342168943900217424
11386260 185 18261666091306452183
117089 54 18335421262266972677
11720765 8 18340771558409240745
12166972 35 18131071558588106219
12440605 4 17757845428974291706
12741549 16 17822284713180456172
13835254 42 18340487751523004040
14068700 675 18060424611950560019
15351339 4 17749944458470559571
15419008 47 18040432201055826783
15439362 3 18122906704982510145
15979999 66 18408325501247808071
16988056 13 18335982090158889797
18365409 1 17976832981766067645
21049683 271 18410014347108432246
21133410 127 17463121694032667101
21133410 230 18341320181248594432
23559900 14 18265053712064128787
24180151 40 17970342608368010426
249057 3 18411984706211167407
283562 15 18263089816993734178
4046055 25 18336555897530711279
4066623 53 18334016090475068116
4403749 210 9439103352465929423
44317340 157 18123755511908217547
508180 173 18114181947694269953
59521099 67 18271525403261829809
6004065 56 18411983593872367954
9962374 69 18269551797217903859

> <PUBCHEM_SHAPE_MULTIPOLES>
799.78
20
8.19
2.16
27.57
12.38
-0.19
-32.75
6.42
-4.8
-1.38
0.9
3.31
2.52

> <PUBCHEM_SHAPE_SELFOVERLAP>
1727.972

> <PUBCHEM_SHAPE_VOLUME>
442.4

> <PUBCHEM_COORDINATE_TYPE>
2
5
10

$$$$