122179389
  -OEChem-03242010103D

 79 82  0     1  0  0  0  0  0999 V2000
    3.8956    0.5915   -0.3910 O   0  0  0  0  0  0  0  0  0  0  0  0
    0.6436   -1.1156    0.0511 O   0  0  0  0  0  0  0  0  0  0  0  0
    4.8524   -4.0647    0.5368 O   0  0  0  0  0  0  0  0  0  0  0  0
    8.3700   -0.9281   -0.1174 O   0  0  0  0  0  0  0  0  0  0  0  0
   -0.3194    3.7174   -2.6377 O   0  0  0  0  0  0  0  0  0  0  0  0
    0.8805    4.0691    1.9855 O   0  0  0  0  0  0  0  0  0  0  0  0
   -0.4477    5.0751   -0.2272 O   0  0  0  0  0  0  0  0  0  0  0  0
    0.0257   -0.4981    2.1900 O   0  0  0  0  0  0  0  0  0  0  0  0
   -7.3337    0.6779    0.8037 O   0  0  0  0  0  0  0  0  0  0  0  0
   -5.9906   -3.5953   -0.8905 O   0  0  0  0  0  0  0  0  0  0  0  0
   -7.9765   -1.7235   -0.4167 O   0  0  0  0  0  0  0  0  0  0  0  0
    2.0045   -0.8131    0.3398 C   0  0  2  0  0  0  0  0  0  0  0  0
    2.5187    0.2591   -0.6310 C   0  0  1  0  0  0  0  0  0  0  0  0
    2.8348   -2.0833    0.1744 C   0  0  0  0  0  0  0  0  0  0  0  0
    4.2971   -1.7657    0.0956 C   0  0  0  0  0  0  0  0  0  0  0  0
    1.7251    1.5480   -0.5227 C   0  0  0  0  0  0  0  0  0  0  0  0
    4.7381   -0.4690   -0.1904 C   0  0  0  0  0  0  0  0  0  0  0  0
    5.2430   -2.7828    0.2820 C   0  0  0  0  0  0  0  0  0  0  0  0
    6.1056   -0.1872   -0.2504 C   0  0  0  0  0  0  0  0  0  0  0  0
    1.6636    2.2292    0.6927 C   0  0  0  0  0  0  0  0  0  0  0  0
    1.0572    2.0516   -1.6391 C   0  0  0  0  0  0  0  0  0  0  0  0
    6.6078   -2.5021    0.2101 C   0  0  0  0  0  0  0  0  0  0  0  0
    7.0387   -1.2038   -0.0521 C   0  0  0  0  0  0  0  0  0  0  0  0
    0.3278    3.2363   -1.5399 C   0  0  0  0  0  0  0  0  0  0  0  0
    0.9342    3.4142    0.7920 C   0  0  0  0  0  0  0  0  0  0  0  0
    0.2663    3.9176   -0.3243 C   0  0  0  0  0  0  0  0  0  0  0  0
   -0.2376   -0.9101    1.0713 C   0  0  0  0  0  0  0  0  0  0  0  0
   -1.5878   -1.2758    0.5866 C   0  0  0  0  0  0  0  0  0  0  0  0
    4.6518   -4.9149   -0.5897 C   0  0  0  0  0  0  0  0  0  0  0  0
    8.7405    0.4221   -0.3928 C   0  0  0  0  0  0  0  0  0  0  0  0
   -2.6620   -0.6506    1.0887 C   0  0  0  0  0  0  0  0  0  0  0  0
   -0.2050    2.9598   -3.8409 C   0  0  0  0  0  0  0  0  0  0  0  0
    1.5915    3.4868    3.0764 C   0  0  0  0  0  0  0  0  0  0  0  0
   -1.8211    4.9590    0.1380 C   0  0  0  0  0  0  0  0  0  0  0  0
   -4.0541   -0.9319    0.6954 C   0  0  0  0  0  0  0  0  0  0  0  0
   -4.3739   -2.1427    0.0815 C   0  0  0  0  0  0  0  0  0  0  0  0
   -5.0516    0.0129    0.9360 C   0  0  0  0  0  0  0  0  0  0  0  0
   -6.3689   -0.2530    0.5625 C   0  0  0  0  0  0  0  0  0  0  0  0
   -5.6914   -2.4089   -0.2917 C   0  0  0  0  0  0  0  0  0  0  0  0
   -6.6888   -1.4640   -0.0513 C   0  0  0  0  0  0  0  0  0  0  0  0
   -6.9223    1.8890    1.4351 C   0  0  0  0  0  0  0  0  0  0  0  0
   -4.9125   -4.5056   -1.0997 C   0  0  0  0  0  0  0  0  0  0  0  0
   -8.3691   -1.3266   -1.7286 C   0  0  0  0  0  0  0  0  0  0  0  0
    2.1546   -0.4709    1.3726 H   0  0  0  0  0  0  0  0  0  0  0  0
    2.4403   -0.1150   -1.6617 H   0  0  0  0  0  0  0  0  0  0  0  0
    2.5295   -2.6084   -0.7394 H   0  0  0  0  0  0  0  0  0  0  0  0
    2.6195   -2.7557    1.0140 H   0  0  0  0  0  0  0  0  0  0  0  0
    6.3810    0.8415   -0.4602 H   0  0  0  0  0  0  0  0  0  0  0  0
    2.2116    1.8038    1.5257 H   0  0  0  0  0  0  0  0  0  0  0  0
    1.1388    1.4809   -2.5577 H   0  0  0  0  0  0  0  0  0  0  0  0
    7.3359   -3.2954    0.3603 H   0  0  0  0  0  0  0  0  0  0  0  0
   -1.6358   -2.0125   -0.2067 H   0  0  0  0  0  0  0  0  0  0  0  0
    4.2595   -5.8706   -0.2315 H   0  0  0  0  0  0  0  0  0  0  0  0
    5.6029   -5.0977   -1.0999 H   0  0  0  0  0  0  0  0  0  0  0  0
    3.9310   -4.4824   -1.2899 H   0  0  0  0  0  0  0  0  0  0  0  0
    9.8347    0.4598   -0.4084 H   0  0  0  0  0  0  0  0  0  0  0  0
    8.4091    1.1005    0.4008 H   0  0  0  0  0  0  0  0  0  0  0  0
    8.3960    0.7403   -1.3827 H   0  0  0  0  0  0  0  0  0  0  0  0
   -2.5358    0.1176    1.8485 H   0  0  0  0  0  0  0  0  0  0  0  0
   -0.6532    1.9657   -3.7365 H   0  0  0  0  0  0  0  0  0  0  0  0
   -0.7804    3.4874   -4.6089 H   0  0  0  0  0  0  0  0  0  0  0  0
    0.8307    2.9170   -4.1947 H   0  0  0  0  0  0  0  0  0  0  0  0
    1.4367    4.1363    3.9443 H   0  0  0  0  0  0  0  0  0  0  0  0
    2.6702    3.4614    2.8880 H   0  0  0  0  0  0  0  0  0  0  0  0
    1.1895    2.5028    3.3416 H   0  0  0  0  0  0  0  0  0  0  0  0
   -2.2520    5.9632    0.1743 H   0  0  0  0  0  0  0  0  0  0  0  0
   -1.9196    4.5003    1.1270 H   0  0  0  0  0  0  0  0  0  0  0  0
   -2.3690    4.3701   -0.6044 H   0  0  0  0  0  0  0  0  0  0  0  0
   -3.5851   -2.8688   -0.0678 H   0  0  0  0  0  0  0  0  0  0  0  0
   -4.7474    0.9385    1.4141 H   0  0  0  0  0  0  0  0  0  0  0  0
   -7.8159    2.5116    1.5491 H   0  0  0  0  0  0  0  0  0  0  0  0
   -6.2213    2.4527    0.8101 H   0  0  0  0  0  0  0  0  0  0  0  0
   -6.5324    1.7073    2.4425 H   0  0  0  0  0  0  0  0  0  0  0  0
   -5.3308   -5.3900   -1.5918 H   0  0  0  0  0  0  0  0  0  0  0  0
   -4.4814   -4.8466   -0.1522 H   0  0  0  0  0  0  0  0  0  0  0  0
   -4.1596   -4.0930   -1.7801 H   0  0  0  0  0  0  0  0  0  0  0  0
   -8.2714   -0.2431   -1.8490 H   0  0  0  0  0  0  0  0  0  0  0  0
   -7.7685   -1.8437   -2.4837 H   0  0  0  0  0  0  0  0  0  0  0  0
   -9.4183   -1.6004   -1.8696 H   0  0  0  0  0  0  0  0  0  0  0  0
  1 13  1  0  0  0  0
  1 17  1  0  0  0  0
  2 12  1  0  0  0  0
  2 27  1  0  0  0  0
  3 18  1  0  0  0  0
  3 29  1  0  0  0  0
  4 23  1  0  0  0  0
  4 30  1  0  0  0  0
  5 24  1  0  0  0  0
  5 32  1  0  0  0  0
  6 25  1  0  0  0  0
  6 33  1  0  0  0  0
  7 26  1  0  0  0  0
  7 34  1  0  0  0  0
  8 27  2  0  0  0  0
  9 38  1  0  0  0  0
  9 41  1  0  0  0  0
 10 39  1  0  0  0  0
 10 42  1  0  0  0  0
 11 40  1  0  0  0  0
 11 43  1  0  0  0  0
 12 13  1  0  0  0  0
 12 14  1  0  0  0  0
 12 44  1  0  0  0  0
 13 16  1  0  0  0  0
 13 45  1  0  0  0  0
 14 15  1  0  0  0  0
 14 46  1  0  0  0  0
 14 47  1  0  0  0  0
 15 17  2  0  0  0  0
 15 18  1  0  0  0  0
 16 20  2  0  0  0  0
 16 21  1  0  0  0  0
 17 19  1  0  0  0  0
 18 22  2  0  0  0  0
 19 23  2  0  0  0  0
 19 48  1  0  0  0  0
 20 25  1  0  0  0  0
 20 49  1  0  0  0  0
 21 24  2  0  0  0  0
 21 50  1  0  0  0  0
 22 23  1  0  0  0  0
 22 51  1  0  0  0  0
 24 26  1  0  0  0  0
 25 26  2  0  0  0  0
 27 28  1  0  0  0  0
 28 31  2  0  0  0  0
 28 52  1  0  0  0  0
 29 53  1  0  0  0  0
 29 54  1  0  0  0  0
 29 55  1  0  0  0  0
 30 56  1  0  0  0  0
 30 57  1  0  0  0  0
 30 58  1  0  0  0  0
 31 35  1  0  0  0  0
 31 59  1  0  0  0  0
 32 60  1  0  0  0  0
 32 61  1  0  0  0  0
 32 62  1  0  0  0  0
 33 63  1  0  0  0  0
 33 64  1  0  0  0  0
 33 65  1  0  0  0  0
 34 66  1  0  0  0  0
 34 67  1  0  0  0  0
 34 68  1  0  0  0  0
 35 36  2  0  0  0  0
 35 37  1  0  0  0  0
 36 39  1  0  0  0  0
 36 69  1  0  0  0  0
 37 38  2  0  0  0  0
 37 70  1  0  0  0  0
 38 40  1  0  0  0  0
 39 40  2  0  0  0  0
 41 71  1  0  0  0  0
 41 72  1  0  0  0  0
 41 73  1  0  0  0  0
 42 74  1  0  0  0  0
 42 75  1  0  0  0  0
 42 76  1  0  0  0  0
 43 77  1  0  0  0  0
 43 78  1  0  0  0  0
 43 79  1  0  0  0  0
M  END
> <PUBCHEM_COMPOUND_CID>
122179389

> <PUBCHEM_CONFORMER_RMSD>
1.2

> <PUBCHEM_CONFORMER_DIVERSEORDER>
7
18
15
9
16
12
6
17
10
4
14
13
11
5
3
8
1
2

> <PUBCHEM_MMFF94_PARTIAL_CHARGES>
51
1 -0.36
10 -0.36
11 -0.36
12 0.28
13 0.42
14 0.14
15 -0.14
16 -0.14
17 0.08
18 0.08
19 -0.15
2 -0.43
20 -0.15
21 -0.15
22 -0.15
23 0.08
24 0.08
25 0.08
26 0.08
27 0.71
28 -0.14
29 0.28
3 -0.36
30 0.28
31 -0.18
32 0.28
33 0.28
34 0.28
35 0.03
36 -0.15
37 -0.15
38 0.08
39 0.08
4 -0.36
40 0.08
41 0.28
42 0.28
43 0.28
48 0.15
49 0.15
5 -0.36
50 0.15
51 0.15
52 0.15
59 0.15
6 -0.36
69 0.15
7 -0.36
70 0.15
8 -0.57
9 -0.36

> <PUBCHEM_EFFECTIVE_ROTOR_COUNT>
13.8

> <PUBCHEM_PHARMACOPHORE_FEATURES>
14
1 1 acceptor
1 10 acceptor
1 11 acceptor
1 3 acceptor
1 4 acceptor
1 5 acceptor
1 6 acceptor
1 7 acceptor
1 8 acceptor
1 9 acceptor
6 1 12 13 14 15 17 rings
6 15 17 18 19 22 23 rings
6 16 20 21 24 25 26 rings
6 35 36 37 38 39 40 rings

> <PUBCHEM_HEAVY_ATOM_COUNT>
43

> <PUBCHEM_ATOM_DEF_STEREO_COUNT>
2

> <PUBCHEM_ATOM_UDEF_STEREO_COUNT>
0

> <PUBCHEM_BOND_DEF_STEREO_COUNT>
1

> <PUBCHEM_BOND_UDEF_STEREO_COUNT>
0

> <PUBCHEM_ISOTOPIC_ATOM_COUNT>
0

> <PUBCHEM_COMPONENT_COUNT>
1

> <PUBCHEM_CACTVS_TAUTO_COUNT>
1

> <PUBCHEM_CONFORMER_ID>
07484F3D00000007

> <PUBCHEM_MMFF94_ENERGY>
205.7182

> <PUBCHEM_FEATURE_SELFOVERLAP>
71.109

> <PUBCHEM_SHAPE_FINGERPRINT>
10050765 1 18120939396383728130
10079526 769 18190767308903438732
11093857 51 17466237743722757141
11331351 85 18338241470694795253
11421498 54 11819539459348255550
13383665 225 18044402469330696974
14068700 675 18201723963559107185
14681490 219 18260547779926741922
15131766 46 16270213073474048496
15183329 4 18333728018460700123
15276724 80 18337675192178564856
18681886 176 18340482365434334659
23559900 14 18263643034472187043
249057 3 18409730699121642159
4015057 19 18189622816247014059
4046055 25 18409169878812259639
44317340 157 18192153922706445059
5219985 9 18334295366438740844

> <PUBCHEM_SHAPE_MULTIPOLES>
820.36
21.87
6.87
1.98
9.29
4.01
0.89
-22.89
1.5
-0.16
1.14
1.04
2.75
-1.58

> <PUBCHEM_SHAPE_SELFOVERLAP>
1758.936

> <PUBCHEM_SHAPE_VOLUME>
458.6

> <PUBCHEM_COORDINATE_TYPE>
2
5
10

$$$$