127028356
  -OEChem-03242010103D

 58 61  0     0  0  0  0  0  0999 V2000
   -7.7583   -0.0555    0.0348 S   0  0  0  0  0  0  0  0  0  0  0  0
   -6.7080   -2.1651    1.1169 F   0  0  0  0  0  0  0  0  0  0  0  0
   -8.6507   -2.4839    0.1737 F   0  0  0  0  0  0  0  0  0  0  0  0
   -6.8669   -2.2370   -1.0563 F   0  0  0  0  0  0  0  0  0  0  0  0
    3.5672    0.7267    0.2343 O   0  0  0  0  0  0  0  0  0  0  0  0
    4.5158   -3.2019   -0.2439 O   0  0  0  0  0  0  0  0  0  0  0  0
    7.0705   -2.5439   -0.4900 O   0  0  0  0  0  0  0  0  0  0  0  0
    8.0970    2.0834   -0.1883 O   0  0  0  0  0  0  0  0  0  0  0  0
   -8.3176    0.3173    1.3269 O   0  0  0  0  0  0  0  0  0  0  0  0
   -8.4933    0.2532   -1.1839 O   0  0  0  0  0  0  0  0  0  0  0  0
   -1.2141    1.4767    0.2164 N   0  0  0  0  0  0  0  0  0  0  0  0
    1.3207    0.1960    0.4574 N   0  0  0  0  0  0  0  0  0  0  0  0
   -0.0044    2.2599    0.5061 C   0  0  0  0  0  0  0  0  0  0  0  0
   -0.8812    0.3122   -0.6172 C   0  0  0  0  0  0  0  0  0  0  0  0
    1.0389    1.4058    1.2292 C   0  0  0  0  0  0  0  0  0  0  0  0
    0.1427   -0.5846    0.0813 C   0  0  0  0  0  0  0  0  0  0  0  0
   -2.2197    2.3093   -0.4425 C   0  0  0  0  0  0  0  0  0  0  0  0
    2.5908   -0.2626    0.2612 C   0  0  0  0  0  0  0  0  0  0  0  0
   -3.6004    1.7208   -0.3234 C   0  0  0  0  0  0  0  0  0  0  0  0
    2.8690   -1.5678    0.1068 C   0  0  0  0  0  0  0  0  0  0  0  0
   -4.3286    1.4124   -1.4724 C   0  0  0  0  0  0  0  0  0  0  0  0
   -4.1513    1.4837    0.9360 C   0  0  0  0  0  0  0  0  0  0  0  0
    4.8764    0.3652    0.0429 C   0  0  0  0  0  0  0  0  0  0  0  0
    5.2797   -0.9572   -0.1277 C   0  0  0  0  0  0  0  0  0  0  0  0
    4.2597   -2.0143   -0.1027 C   0  0  0  0  0  0  0  0  0  0  0  0
   -6.1586    0.6302   -0.1028 C   0  0  0  0  0  0  0  0  0  0  0  0
   -5.6077    0.8673   -1.3622 C   0  0  0  0  0  0  0  0  0  0  0  0
   -5.4304    0.9384    1.0464 C   0  0  0  0  0  0  0  0  0  0  0  0
    6.6282   -1.2670   -0.3189 C   0  0  0  0  0  0  0  0  0  0  0  0
    5.8232    1.3897    0.0229 C   0  0  0  0  0  0  0  0  0  0  0  0
    7.1715    1.0854   -0.1680 C   0  0  0  0  0  0  0  0  0  0  0  0
    7.5730   -0.2403   -0.3383 C   0  0  0  0  0  0  0  0  0  0  0  0
   -7.4849   -1.8010    0.0683 C   0  0  0  0  0  0  0  0  0  0  0  0
    7.4325   -3.2672    0.6850 C   0  0  0  0  0  0  0  0  0  0  0  0
    7.6189    3.4156   -0.0081 C   0  0  0  0  0  0  0  0  0  0  0  0
   -0.4818    0.6331   -1.5890 H   0  0  0  0  0  0  0  0  0  0  0  0
    0.4262    2.6630   -0.4205 H   0  0  0  0  0  0  0  0  0  0  0  0
   -1.7743   -0.2922   -0.8142 H   0  0  0  0  0  0  0  0  0  0  0  0
   -0.2536    3.1111    1.1512 H   0  0  0  0  0  0  0  0  0  0  0  0
    1.9332    2.0161    1.3991 H   0  0  0  0  0  0  0  0  0  0  0  0
    0.6660    1.1160    2.2201 H   0  0  0  0  0  0  0  0  0  0  0  0
   -0.2947   -1.0403    0.9785 H   0  0  0  0  0  0  0  0  0  0  0  0
    0.3766   -1.3950   -0.6181 H   0  0  0  0  0  0  0  0  0  0  0  0
   -1.9552    2.5047   -1.4904 H   0  0  0  0  0  0  0  0  0  0  0  0
   -2.2716    3.2964    0.0382 H   0  0  0  0  0  0  0  0  0  0  0  0
    2.1235   -2.3529    0.1522 H   0  0  0  0  0  0  0  0  0  0  0  0
   -3.9107    1.5890   -2.4599 H   0  0  0  0  0  0  0  0  0  0  0  0
   -3.5976    1.7224    1.8403 H   0  0  0  0  0  0  0  0  0  0  0  0
   -6.1537    0.6275   -2.2702 H   0  0  0  0  0  0  0  0  0  0  0  0
   -5.8378    0.7564    2.0368 H   0  0  0  0  0  0  0  0  0  0  0  0
    5.4517    2.3998    0.1608 H   0  0  0  0  0  0  0  0  0  0  0  0
    8.6252   -0.4707   -0.4875 H   0  0  0  0  0  0  0  0  0  0  0  0
    7.5674   -4.3176    0.4130 H   0  0  0  0  0  0  0  0  0  0  0  0
    6.6551   -3.2005    1.4530 H   0  0  0  0  0  0  0  0  0  0  0  0
    8.3780   -2.8843    1.0815 H   0  0  0  0  0  0  0  0  0  0  0  0
    8.4886    4.0794   -0.0523 H   0  0  0  0  0  0  0  0  0  0  0  0
    7.1646    3.5503    0.9794 H   0  0  0  0  0  0  0  0  0  0  0  0
    6.9470    3.7155   -0.8194 H   0  0  0  0  0  0  0  0  0  0  0  0
  1  9  2  0  0  0  0
  1 10  2  0  0  0  0
  1 26  1  0  0  0  0
  1 33  1  0  0  0  0
  2 33  1  0  0  0  0
  3 33  1  0  0  0  0
  4 33  1  0  0  0  0
  5 18  1  0  0  0  0
  5 23  1  0  0  0  0
  6 25  2  0  0  0  0
  7 29  1  0  0  0  0
  7 34  1  0  0  0  0
  8 31  1  0  0  0  0
  8 35  1  0  0  0  0
 11 13  1  0  0  0  0
 11 14  1  0  0  0  0
 11 17  1  0  0  0  0
 12 15  1  0  0  0  0
 12 16  1  0  0  0  0
 12 18  1  0  0  0  0
 13 15  1  0  0  0  0
 13 37  1  0  0  0  0
 13 39  1  0  0  0  0
 14 16  1  0  0  0  0
 14 36  1  0  0  0  0
 14 38  1  0  0  0  0
 15 40  1  0  0  0  0
 15 41  1  0  0  0  0
 16 42  1  0  0  0  0
 16 43  1  0  0  0  0
 17 19  1  0  0  0  0
 17 44  1  0  0  0  0
 17 45  1  0  0  0  0
 18 20  2  0  0  0  0
 19 21  2  0  0  0  0
 19 22  1  0  0  0  0
 20 25  1  0  0  0  0
 20 46  1  0  0  0  0
 21 27  1  0  0  0  0
 21 47  1  0  0  0  0
 22 28  2  0  0  0  0
 22 48  1  0  0  0  0
 23 24  2  0  0  0  0
 23 30  1  0  0  0  0
 24 25  1  0  0  0  0
 24 29  1  0  0  0  0
 26 27  2  0  0  0  0
 26 28  1  0  0  0  0
 27 49  1  0  0  0  0
 28 50  1  0  0  0  0
 29 32  2  0  0  0  0
 30 31  2  0  0  0  0
 30 51  1  0  0  0  0
 31 32  1  0  0  0  0
 32 52  1  0  0  0  0
 34 53  1  0  0  0  0
 34 54  1  0  0  0  0
 34 55  1  0  0  0  0
 35 56  1  0  0  0  0
 35 57  1  0  0  0  0
 35 58  1  0  0  0  0
M  END
> <PUBCHEM_COMPOUND_CID>
127028356

> <PUBCHEM_CONFORMER_RMSD>
1.2

> <PUBCHEM_CONFORMER_DIVERSEORDER>
2
40
56
19
65
63
17
41
72
102
79
81
77
55
74
27
11
66
8
80
5
103
84
48
34
69
42
76
88
14
16
104
58
3
83
6
67
68
28
25
70
13
46
31
35
38
92
49
26
54
71
59
64
73
85
90
37
36
82
22
62
23
60
44
9
95
30
91
100
57
32
78
105
15
94
21
10
39
1
20
24
45
4
86
43
89
12
97
47
29
50
96
99
101
33
52
93
75
53
87
18
51
98
61
7

> <PUBCHEM_MMFF94_PARTIAL_CHARGES>
42
1 1.2
10 -0.65
11 -0.81
12 -0.84
13 0.27
14 0.27
15 0.37
16 0.37
17 0.41
18 0.18
19 -0.14
2 -0.34
20 -0.14
21 -0.15
22 -0.15
23 0.08
24 0.09
25 0.47
26 -0.01
27 -0.15
28 -0.15
29 0.08
3 -0.34
30 -0.15
31 0.08
32 -0.15
33 1.13
34 0.28
35 0.28
4 -0.34
46 0.15
47 0.15
48 0.15
49 0.15
5 -0.16
50 0.15
51 0.15
52 0.15
6 -0.57
7 -0.36
8 -0.36
9 -0.65

> <PUBCHEM_EFFECTIVE_ROTOR_COUNT>
8.2

> <PUBCHEM_PHARMACOPHORE_FEATURES>
12
1 10 acceptor
1 11 cation
1 12 cation
1 5 acceptor
1 6 acceptor
1 7 acceptor
1 8 acceptor
1 9 acceptor
6 11 12 13 14 15 16 rings
6 19 21 22 26 27 28 rings
6 23 24 29 30 31 32 rings
6 5 18 20 23 24 25 rings

> <PUBCHEM_HEAVY_ATOM_COUNT>
35

> <PUBCHEM_ATOM_DEF_STEREO_COUNT>
0

> <PUBCHEM_ATOM_UDEF_STEREO_COUNT>
0

> <PUBCHEM_BOND_DEF_STEREO_COUNT>
0

> <PUBCHEM_BOND_UDEF_STEREO_COUNT>
0

> <PUBCHEM_ISOTOPIC_ATOM_COUNT>
0

> <PUBCHEM_COMPONENT_COUNT>
1

> <PUBCHEM_CACTVS_TAUTO_COUNT>
1

> <PUBCHEM_CONFORMER_ID>
07924C8400000002

> <PUBCHEM_MMFF94_ENERGY>
101.6105

> <PUBCHEM_FEATURE_SELFOVERLAP>
60.957

> <PUBCHEM_SHAPE_FINGERPRINT>
10049733 35 18410001166713586117
10299344 5 17988924448770085637
10391435 84 18114181969058291003
10677351 14 18334860476349424788
10917259 128 14129876121466978413
11315181 36 18413390939429270969
11497681 19 18410009927223224157
12013929 94 18342178925113627111
12082328 90 18412542081565648285
12522641 126 18116439334797002117
1361 4 18339643343456866495
13692114 37 18113333090738509106
13782708 43 17970628489717005862
13811026 1 18333453161706384747
13914758 101 8935002572651215573
14142895 15 18336830887761296660
14178184 131 18060133302190754079
14251764 18 17775002384306955629
14347424 109 8862940568515214076
14400156 96 17822014229869022868
14856354 85 16487249989706354797
150020 25 18113897134921522821
15064981 113 14273453639524219587
15142383 8 9295282846908053782
15152005 290 18337955723276333724
15183329 4 17346874537798268332
15347591 1 18192428576214825296
15352257 5 18411418402019507099
15444296 7 18334859475759149900
15728490 51 18412263969415896293
16067689 302 18342460356660500270
18335252 98 18410575106491375752
18608769 82 18410571816509809087
20157964 124 18410575068723153300
21049683 271 18342457071249052080
21774942 28 12540963072001147463
22149856 69 18131354059808825632
22164985 6 18186517683793044663
23424782 7 18335421278982630460
23522609 53 17703247139056550720
23569917 315 18198627628080732446
23569943 247 17828762838271120554
24771750 20 18045226196202688412
335507 130 18060414682471461662
3552219 110 17847069886740068969
4093350 32 14189278393258035944
4149490 64 18408880721199411794
439807 62 18341048532359795481
44880568 143 17531247206017384149
4625314 4 18335419058906941029
4760202 70 18268425913798970797
5381727 24 18259697905647962344
54583773 228 18263087780646421012
5470011 282 18408600361906590588
636783 267 18270409398526458467
9962374 69 17131258165231116661
999808 66 18412546509908597199

> <PUBCHEM_SHAPE_MULTIPOLES>
657.13
31.4
3.32
1.01
17.95
1.1
-0.02
9.45
-1.4
-4.7
0.11
1.62
-0.14
0.25

> <PUBCHEM_SHAPE_SELFOVERLAP>
1409.577

> <PUBCHEM_SHAPE_VOLUME>
369.2

> <PUBCHEM_COORDINATE_TYPE>
2
5
10

$$$$