22
 OpenBabel03292022253D

 86 89  0  0  1  0  0  0  0  0999 V2000
   19.4247    2.1914   -0.6900 C   0  0  0  0  0  0  0  0  0  0  0  0
   19.3109    1.6616   -1.9100 C   0  0  0  0  0  0  0  0  0  0  0  0
   18.0574    1.1343   -2.5543 C   0  0  0  0  0  0  0  0  0  0  0  0
   17.0338    0.8262   -1.6082 O   0  0  0  0  0  0  0  0  0  0  0  0
   15.8351    1.4882   -1.6225 C   0  0  0  0  0  0  0  0  0  0  0  0
   15.2306    1.5049   -0.3496 C   0  0  0  0  0  0  0  0  0  0  0  0
   14.0236    2.1752   -0.1029 C   0  0  0  0  0  0  0  0  0  0  0  0
   13.4028    2.0447    1.2553 C   0  0  0  0  0  0  0  0  0  0  0  0
   13.9034    1.3802    2.1418 O   0  0  0  0  0  0  0  0  0  0  0  0
   12.2435    2.7453    1.3768 O   0  0  0  0  0  0  0  0  0  0  0  0
   11.4567    2.5815    2.5979 C   0  0  1  0  0  0  0  0  0  0  0  0
   10.7698    1.2185    2.6929 C   0  0  0  0  0  0  0  0  0  0  0  0
   10.5215    0.5438    1.6988 O   0  0  0  0  0  0  0  0  0  0  0  0
   10.4158    0.7572    4.0580 C   0  0  0  0  0  0  0  0  0  0  0  0
    9.2396    0.1286    4.4829 C   0  0  0  0  0  0  0  0  0  0  0  0
    8.0691   -0.1442    3.8379 O   0  0  0  0  0  0  0  0  0  0  0  0
    7.8826    0.1731    2.4736 C   0  0  0  0  0  0  0  0  0  0  0  0
    9.1490   -0.2707    5.8343 C   0  0  0  0  0  0  0  0  0  0  0  0
   10.1842   -0.0782    6.7515 C   0  0  0  0  0  0  0  0  0  0  0  0
    9.9327   -0.5499    8.0084 O   0  0  0  0  0  0  0  0  0  0  0  0
   10.9923   -0.4856    8.9545 C   0  0  0  0  0  0  0  0  0  0  0  0
   11.3299    0.5785    6.3303 C   0  0  0  0  0  0  0  0  0  0  0  0
   11.4203    1.0169    5.0047 C   0  0  0  0  0  0  0  0  0  0  0  0
   12.5362    1.7552    4.6906 O   0  0  0  0  0  0  0  0  0  0  0  0
   12.2157    2.9214    3.8988 C   0  0  2  0  0  0  0  0  0  0  0  0
   11.5965    3.9648    4.8340 C   0  0  0  0  0  0  0  0  0  0  0  0
   12.4611    4.7886    5.5615 C   0  0  0  0  0  0  0  0  0  0  0  0
   11.9948    5.6928    6.5287 C   0  0  0  0  0  0  0  0  0  0  0  0
   12.8806    6.4810    7.2201 O   0  0  0  0  0  0  0  0  0  0  0  0
   14.0488    6.8911    6.5146 C   0  0  0  0  0  0  0  0  0  0  0  0
   10.6198    5.7425    6.8460 C   0  0  0  0  0  0  0  0  0  0  0  0
   10.0487    6.5415    7.8006 O   0  0  0  0  0  0  0  0  0  0  0  0
   10.8418    7.4159    8.5860 C   0  0  0  0  0  0  0  0  0  0  0  0
    9.7366    4.9105    6.1236 C   0  0  0  0  0  0  0  0  0  0  0  0
    8.3729    4.7858    6.2549 O   0  0  0  0  0  0  0  0  0  0  0  0
    7.7101    5.4293    7.3341 C   0  0  0  0  0  0  0  0  0  0  0  0
   10.2287    4.0555    5.1175 C   0  0  0  0  0  0  0  0  0  0  0  0
   13.4425    2.9036   -1.1409 C   0  0  0  0  0  0  0  0  0  0  0  0
   13.9847    2.8407   -2.4383 C   0  0  0  0  0  0  0  0  0  0  0  0
   13.4278    3.4920   -3.5203 O   0  0  0  0  0  0  0  0  0  0  0  0
   12.0760    3.9291   -3.3842 C   0  0  0  0  0  0  0  0  0  0  0  0
   11.4418    4.2188   -4.7179 C   0  0  0  0  0  0  0  0  0  0  0  0
   12.0403    4.2379   -5.9163 C   0  0  0  0  0  0  0  0  0  0  0  0
   15.1533    2.0757   -2.6986 C   0  0  0  0  0  0  0  0  0  0  0  0
   15.5192    1.9866   -4.0232 O   0  0  0  0  0  0  0  0  0  0  0  0
   15.7690    0.6670   -4.5220 C   0  0  0  0  0  0  0  0  0  0  0  0
   14.7484    0.1780   -5.5129 C   0  0  0  0  0  0  0  0  0  0  0  0
   13.5975    0.7645   -5.8542 C   0  0  0  0  0  0  0  0  0  0  0  0
   20.3840    2.5713   -0.3422 H   0  0  0  0  0  0  0  0  0  0  0  0
   18.5779    2.2836   -0.0232 H   0  0  0  0  0  0  0  0  0  0  0  0
   20.2007    1.6163   -2.5371 H   0  0  0  0  0  0  0  0  0  0  0  0
   18.3108    0.1861   -3.0447 H   0  0  0  0  0  0  0  0  0  0  0  0
   17.7663    1.8524   -3.3190 H   0  0  0  0  0  0  0  0  0  0  0  0
   15.7228    0.9739    0.4658 H   0  0  0  0  0  0  0  0  0  0  0  0
   10.6469    3.3074    2.4560 H   0  0  0  0  0  0  0  0  0  0  0  0
    6.8274   -0.0046    2.2397 H   0  0  0  0  0  0  0  0  0  0  0  0
    8.4589   -0.5057    1.8429 H   0  0  0  0  0  0  0  0  0  0  0  0
    8.0832    1.2281    2.2689 H   0  0  0  0  0  0  0  0  0  0  0  0
    8.2316   -0.7474    6.1819 H   0  0  0  0  0  0  0  0  0  0  0  0
   10.6820   -1.0448    9.8433 H   0  0  0  0  0  0  0  0  0  0  0  0
   11.1794    0.5503    9.2572 H   0  0  0  0  0  0  0  0  0  0  0  0
   11.9049   -0.9555    8.5714 H   0  0  0  0  0  0  0  0  0  0  0  0
   12.1476    0.8007    7.0074 H   0  0  0  0  0  0  0  0  0  0  0  0
   13.1826    3.3444    3.5995 H   0  0  0  0  0  0  0  0  0  0  0  0
   13.5292    4.6798    5.3903 H   0  0  0  0  0  0  0  0  0  0  0  0
   14.4837    7.7372    7.0535 H   0  0  0  0  0  0  0  0  0  0  0  0
   13.8133    7.2254    5.4983 H   0  0  0  0  0  0  0  0  0  0  0  0
   14.7944    6.0889    6.5026 H   0  0  0  0  0  0  0  0  0  0  0  0
   10.1733    7.9254    9.2874 H   0  0  0  0  0  0  0  0  0  0  0  0
   11.3064    8.1888    7.9661 H   0  0  0  0  0  0  0  0  0  0  0  0
   11.5722    6.8668    9.1880 H   0  0  0  0  0  0  0  0  0  0  0  0
    6.6601    5.1199    7.3091 H   0  0  0  0  0  0  0  0  0  0  0  0
    7.7229    6.5165    7.2110 H   0  0  0  0  0  0  0  0  0  0  0  0
    8.1127    5.1165    8.3030 H   0  0  0  0  0  0  0  0  0  0  0  0
    9.5057    3.4235    4.6069 H   0  0  0  0  0  0  0  0  0  0  0  0
   12.5551    3.4918   -0.9349 H   0  0  0  0  0  0  0  0  0  0  0  0
   12.0488    4.8448   -2.7817 H   0  0  0  0  0  0  0  0  0  0  0  0
   11.4692    3.1512   -2.9060 H   0  0  0  0  0  0  0  0  0  0  0  0
   10.3721    4.4146   -4.6788 H   0  0  0  0  0  0  0  0  0  0  0  0
   13.1048    4.0526   -6.0266 H   0  0  0  0  0  0  0  0  0  0  0  0
   11.4702    4.4337   -6.8191 H   0  0  0  0  0  0  0  0  0  0  0  0
   15.8661   -0.0867   -3.7345 H   0  0  0  0  0  0  0  0  0  0  0  0
   16.7258    0.7158   -5.0551 H   0  0  0  0  0  0  0  0  0  0  0  0
   15.0007   -0.7657   -5.9914 H   0  0  0  0  0  0  0  0  0  0  0  0
   13.2887    1.7012   -5.4090 H   0  0  0  0  0  0  0  0  0  0  0  0
   12.9345    0.3127   -6.5847 H   0  0  0  0  0  0  0  0  0  0  0  0
  1  2  2  0  0  0  0
  1 49  1  0  0  0  0
  1 50  1  0  0  0  0
  2  3  1  0  0  0  0
  2 51  1  0  0  0  0
  3  4  1  0  0  0  0
  3 52  1  0  0  0  0
  3 53  1  0  0  0  0
  4  5  1  0  0  0  0
  5  6  1  0  0  0  0
  5 44  2  0  0  0  0
  6  7  2  0  0  0  0
  6 54  1  0  0  0  0
  7  8  1  0  0  0  0
  7 38  1  0  0  0  0
  8  9  2  0  0  0  0
  8 10  1  0  0  0  0
 11 12  1  0  0  0  0
 11 25  1  0  0  0  0
 11 10  1  0  0  0  0
 11 55  1  6  0  0  0
 12 13  2  0  0  0  0
 12 14  1  0  0  0  0
 14 15  1  0  0  0  0
 14 23  2  0  0  0  0
 15 16  1  0  0  0  0
 15 18  2  0  0  0  0
 16 17  1  0  0  0  0
 17 56  1  0  0  0  0
 17 57  1  0  0  0  0
 17 58  1  0  0  0  0
 18 19  1  0  0  0  0
 18 59  1  0  0  0  0
 19 20  1  0  0  0  0
 19 22  2  0  0  0  0
 20 21  1  0  0  0  0
 21 60  1  0  0  0  0
 21 61  1  0  0  0  0
 21 62  1  0  0  0  0
 22 23  1  0  0  0  0
 22 63  1  0  0  0  0
 23 24  1  0  0  0  0
 24 25  1  0  0  0  0
 25 26  1  0  0  0  0
 25 64  1  6  0  0  0
 26 27  1  0  0  0  0
 26 37  2  0  0  0  0
 27 28  2  0  0  0  0
 27 65  1  0  0  0  0
 28 29  1  0  0  0  0
 28 31  1  0  0  0  0
 29 30  1  0  0  0  0
 30 66  1  0  0  0  0
 30 67  1  0  0  0  0
 30 68  1  0  0  0  0
 31 32  1  0  0  0  0
 31 34  2  0  0  0  0
 32 33  1  0  0  0  0
 33 69  1  0  0  0  0
 33 70  1  0  0  0  0
 33 71  1  0  0  0  0
 34 35  1  0  0  0  0
 34 37  1  0  0  0  0
 35 36  1  0  0  0  0
 36 72  1  0  0  0  0
 36 73  1  0  0  0  0
 36 74  1  0  0  0  0
 37 75  1  0  0  0  0
 38 39  2  0  0  0  0
 38 76  1  0  0  0  0
 39 40  1  0  0  0  0
 39 44  1  0  0  0  0
 40 41  1  0  0  0  0
 41 42  1  0  0  0  0
 41 77  1  0  0  0  0
 41 78  1  0  0  0  0
 42 43  2  0  0  0  0
 42 79  1  0  0  0  0
 43 80  1  0  0  0  0
 43 81  1  0  0  0  0
 44 45  1  0  0  0  0
 45 46  1  0  0  0  0
 46 47  1  0  0  0  0
 46 82  1  0  0  0  0
 46 83  1  0  0  0  0
 47 48  2  0  0  0  0
 47 84  1  0  0  0  0
 48 85  1  0  0  0  0
 48 86  1  0  0  0  0
M  END
>  <Energy>
235.381

$$$$