122179377
  -OEChem-03242010103D

 73 76  0     1  0  0  0  0  0999 V2000
   -0.5865   -1.7113   -0.4248 O   0  0  0  0  0  0  0  0  0  0  0  0
   -0.4603    1.0745    0.2956 O   0  0  0  0  0  0  0  0  0  0  0  0
    3.5496   -0.9451    1.9789 O   0  0  0  0  0  0  0  0  0  0  0  0
    3.4327   -3.7694   -1.8485 O   0  0  0  0  0  0  0  0  0  0  0  0
   -4.5269    0.3077   -2.7108 O   0  0  0  0  0  0  0  0  0  0  0  0
   -6.1088   -0.8413    1.6613 O   0  0  0  0  0  0  0  0  0  0  0  0
   -6.6202    0.0251   -0.9195 O   0  0  0  0  0  0  0  0  0  0  0  0
   -0.5464    2.6963    1.9344 O   0  0  0  0  0  0  0  0  0  0  0  0
    5.6027    0.8352   -0.1354 O   0  0  0  0  0  0  0  0  0  0  0  0
   -0.6113    0.0591    1.2888 C   0  0  1  0  0  0  0  0  0  0  0  0
   -1.3138   -1.1651    0.6873 C   0  0  1  0  0  0  0  0  0  0  0  0
    0.7677   -0.3486    1.8033 C   0  0  0  0  0  0  0  0  0  0  0  0
    1.4600   -1.2639    0.8297 C   0  0  0  0  0  0  0  0  0  0  0  0
   -2.7338   -0.8465    0.2576 C   0  0  0  0  0  0  0  0  0  0  0  0
    0.7552   -1.8896   -0.2063 C   0  0  0  0  0  0  0  0  0  0  0  0
    2.8319   -1.5149    0.9686 C   0  0  0  0  0  0  0  0  0  0  0  0
    1.4207   -2.7199   -1.1118 C   0  0  0  0  0  0  0  0  0  0  0  0
   -3.7852   -0.9892    1.1629 C   0  0  0  0  0  0  0  0  0  0  0  0
   -2.9877   -0.4105   -1.0429 C   0  0  0  0  0  0  0  0  0  0  0  0
    3.4921   -2.3555    0.0718 C   0  0  0  0  0  0  0  0  0  0  0  0
    2.7876   -2.9542   -0.9702 C   0  0  0  0  0  0  0  0  0  0  0  0
   -0.4442    2.3592    0.7629 C   0  0  0  0  0  0  0  0  0  0  0  0
   -4.2929   -0.1174   -1.4380 C   0  0  0  0  0  0  0  0  0  0  0  0
   -5.0905   -0.6960    0.7679 C   0  0  0  0  0  0  0  0  0  0  0  0
   -0.2771    3.3043   -0.4051 C   0  0  0  0  0  0  0  0  0  0  0  0
   -5.3443   -0.2602   -0.5327 C   0  0  0  0  0  0  0  0  0  0  0  0
    1.0052    4.1283   -0.2933 C   0  0  0  0  0  0  0  0  0  0  0  0
    2.2298    3.2516   -0.2509 C   0  0  0  0  0  0  0  0  0  0  0  0
    3.6317   -1.6718    3.2026 C   0  0  0  0  0  0  0  0  0  0  0  0
    4.8315   -3.9653   -1.6449 C   0  0  0  0  0  0  0  0  0  0  0  0
    2.8715    2.8924   -1.4362 C   0  0  0  0  0  0  0  0  0  0  0  0
    2.7219    2.7987    0.9733 C   0  0  0  0  0  0  0  0  0  0  0  0
   -3.3964    0.4267   -3.5724 C   0  0  0  0  0  0  0  0  0  0  0  0
   -5.7631   -1.2914    2.9698 C   0  0  0  0  0  0  0  0  0  0  0  0
   -7.0690    1.3652   -0.7299 C   0  0  0  0  0  0  0  0  0  0  0  0
    4.0051    2.0808   -1.3975 C   0  0  0  0  0  0  0  0  0  0  0  0
    3.8555    1.9871    1.0122 C   0  0  0  0  0  0  0  0  0  0  0  0
    4.4971    1.6281   -0.1733 C   0  0  0  0  0  0  0  0  0  0  0  0
    6.2091    0.5069   -1.3846 C   0  0  0  0  0  0  0  0  0  0  0  0
   -1.2134    0.4363    2.1261 H   0  0  0  0  0  0  0  0  0  0  0  0
   -1.3714   -1.9633    1.4421 H   0  0  0  0  0  0  0  0  0  0  0  0
    1.3780    0.5362    1.9982 H   0  0  0  0  0  0  0  0  0  0  0  0
    0.6436   -0.8938    2.7467 H   0  0  0  0  0  0  0  0  0  0  0  0
    0.8725   -3.1904   -1.9246 H   0  0  0  0  0  0  0  0  0  0  0  0
   -3.5266   -1.3286    2.1602 H   0  0  0  0  0  0  0  0  0  0  0  0
   -2.1373   -0.3014   -1.7061 H   0  0  0  0  0  0  0  0  0  0  0  0
    4.5551   -2.5006    0.2350 H   0  0  0  0  0  0  0  0  0  0  0  0
   -1.1547    3.9597   -0.4309 H   0  0  0  0  0  0  0  0  0  0  0  0
   -0.2817    2.7368   -1.3440 H   0  0  0  0  0  0  0  0  0  0  0  0
    1.0728    4.8219   -1.1405 H   0  0  0  0  0  0  0  0  0  0  0  0
    0.9747    4.7546    0.6075 H   0  0  0  0  0  0  0  0  0  0  0  0
    4.1513   -1.0485    3.9355 H   0  0  0  0  0  0  0  0  0  0  0  0
    4.2060   -2.5922    3.0577 H   0  0  0  0  0  0  0  0  0  0  0  0
    2.6371   -1.9107    3.5904 H   0  0  0  0  0  0  0  0  0  0  0  0
    5.1816   -4.6385   -2.4344 H   0  0  0  0  0  0  0  0  0  0  0  0
    5.0336   -4.4611   -0.6894 H   0  0  0  0  0  0  0  0  0  0  0  0
    5.3891   -3.0287   -1.7533 H   0  0  0  0  0  0  0  0  0  0  0  0
    2.4952    3.2375   -2.3957 H   0  0  0  0  0  0  0  0  0  0  0  0
    2.2424    3.0807    1.9065 H   0  0  0  0  0  0  0  0  0  0  0  0
   -2.6930    1.1859   -3.2134 H   0  0  0  0  0  0  0  0  0  0  0  0
   -2.9152   -0.5422   -3.7446 H   0  0  0  0  0  0  0  0  0  0  0  0
   -3.7671    0.7728   -4.5429 H   0  0  0  0  0  0  0  0  0  0  0  0
   -5.3383   -2.3009    2.9509 H   0  0  0  0  0  0  0  0  0  0  0  0
   -5.1150   -0.5745    3.4855 H   0  0  0  0  0  0  0  0  0  0  0  0
   -6.6925   -1.3495    3.5459 H   0  0  0  0  0  0  0  0  0  0  0  0
   -7.0466    1.6327    0.3313 H   0  0  0  0  0  0  0  0  0  0  0  0
   -6.4530    2.0631   -1.3058 H   0  0  0  0  0  0  0  0  0  0  0  0
   -8.1006    1.4344   -1.0857 H   0  0  0  0  0  0  0  0  0  0  0  0
    4.4533    1.8391   -2.3551 H   0  0  0  0  0  0  0  0  0  0  0  0
    4.2426    1.6531    1.9706 H   0  0  0  0  0  0  0  0  0  0  0  0
    7.0732   -0.1293   -1.1667 H   0  0  0  0  0  0  0  0  0  0  0  0
    6.5884    1.3986   -1.8949 H   0  0  0  0  0  0  0  0  0  0  0  0
    5.5335   -0.0787   -2.0175 H   0  0  0  0  0  0  0  0  0  0  0  0
  1 11  1  0  0  0  0
  1 15  1  0  0  0  0
  2 10  1  0  0  0  0
  2 22  1  0  0  0  0
  3 16  1  0  0  0  0
  3 29  1  0  0  0  0
  4 21  1  0  0  0  0
  4 30  1  0  0  0  0
  5 23  1  0  0  0  0
  5 33  1  0  0  0  0
  6 24  1  0  0  0  0
  6 34  1  0  0  0  0
  7 26  1  0  0  0  0
  7 35  1  0  0  0  0
  8 22  2  0  0  0  0
  9 38  1  0  0  0  0
  9 39  1  0  0  0  0
 10 11  1  0  0  0  0
 10 12  1  0  0  0  0
 10 40  1  0  0  0  0
 11 14  1  0  0  0  0
 11 41  1  0  0  0  0
 12 13  1  0  0  0  0
 12 42  1  0  0  0  0
 12 43  1  0  0  0  0
 13 15  2  0  0  0  0
 13 16  1  0  0  0  0
 14 18  2  0  0  0  0
 14 19  1  0  0  0  0
 15 17  1  0  0  0  0
 16 20  2  0  0  0  0
 17 21  2  0  0  0  0
 17 44  1  0  0  0  0
 18 24  1  0  0  0  0
 18 45  1  0  0  0  0
 19 23  2  0  0  0  0
 19 46  1  0  0  0  0
 20 21  1  0  0  0  0
 20 47  1  0  0  0  0
 22 25  1  0  0  0  0
 23 26  1  0  0  0  0
 24 26  2  0  0  0  0
 25 27  1  0  0  0  0
 25 48  1  0  0  0  0
 25 49  1  0  0  0  0
 27 28  1  0  0  0  0
 27 50  1  0  0  0  0
 27 51  1  0  0  0  0
 28 31  2  0  0  0  0
 28 32  1  0  0  0  0
 29 52  1  0  0  0  0
 29 53  1  0  0  0  0
 29 54  1  0  0  0  0
 30 55  1  0  0  0  0
 30 56  1  0  0  0  0
 30 57  1  0  0  0  0
 31 36  1  0  0  0  0
 31 58  1  0  0  0  0
 32 37  2  0  0  0  0
 32 59  1  0  0  0  0
 33 60  1  0  0  0  0
 33 61  1  0  0  0  0
 33 62  1  0  0  0  0
 34 63  1  0  0  0  0
 34 64  1  0  0  0  0
 34 65  1  0  0  0  0
 35 66  1  0  0  0  0
 35 67  1  0  0  0  0
 35 68  1  0  0  0  0
 36 38  2  0  0  0  0
 36 69  1  0  0  0  0
 37 38  1  0  0  0  0
 37 70  1  0  0  0  0
 39 71  1  0  0  0  0
 39 72  1  0  0  0  0
 39 73  1  0  0  0  0
M  END
> <PUBCHEM_COMPOUND_CID>
122179377

> <PUBCHEM_CONFORMER_RMSD>
1.2

> <PUBCHEM_CONFORMER_DIVERSEORDER>
1
33
30
49
47
24
4
35
11
34
36
15
29
3
22
48
32
20
37
38
8
44
39
31
28
17
27
40
13
42
23
43
25
14
26
41
2
6
10
18
7
9
16
21
12
46
19
45
5

> <PUBCHEM_MMFF94_PARTIAL_CHARGES>
47
1 -0.36
10 0.28
11 0.42
12 0.14
13 -0.14
14 -0.14
15 0.08
16 0.08
17 -0.15
18 -0.15
19 -0.15
2 -0.43
20 -0.15
21 0.08
22 0.66
23 0.08
24 0.08
25 0.06
26 0.08
27 0.14
28 -0.14
29 0.28
3 -0.36
30 0.28
31 -0.15
32 -0.15
33 0.28
34 0.28
35 0.28
36 -0.15
37 -0.15
38 0.08
39 0.28
4 -0.36
44 0.15
45 0.15
46 0.15
47 0.15
5 -0.36
58 0.15
59 0.15
6 -0.36
69 0.15
7 -0.36
70 0.15
8 -0.57
9 -0.36

> <PUBCHEM_EFFECTIVE_ROTOR_COUNT>
12.8

> <PUBCHEM_PHARMACOPHORE_FEATURES>
12
1 1 acceptor
1 3 acceptor
1 4 acceptor
1 5 acceptor
1 6 acceptor
1 7 acceptor
1 8 acceptor
1 9 acceptor
6 1 10 11 12 13 15 rings
6 13 15 16 17 20 21 rings
6 14 18 19 23 24 26 rings
6 28 31 32 36 37 38 rings

> <PUBCHEM_HEAVY_ATOM_COUNT>
39

> <PUBCHEM_ATOM_DEF_STEREO_COUNT>
2

> <PUBCHEM_ATOM_UDEF_STEREO_COUNT>
0

> <PUBCHEM_BOND_DEF_STEREO_COUNT>
0

> <PUBCHEM_BOND_UDEF_STEREO_COUNT>
0

> <PUBCHEM_ISOTOPIC_ATOM_COUNT>
0

> <PUBCHEM_COMPONENT_COUNT>
1

> <PUBCHEM_CACTVS_TAUTO_COUNT>
6

> <PUBCHEM_CONFORMER_ID>
07484F3100000001

> <PUBCHEM_MMFF94_ENERGY>
162.5226

> <PUBCHEM_FEATURE_SELFOVERLAP>
60.944

> <PUBCHEM_SHAPE_FINGERPRINT>
10369192 42 17753620331868710997
11513181 2 17988082175660488470
11578080 2 17023195949668985810
12160290 23 17405974164286063539
12422481 6 17827880153413561128
12660671 118 18261385634506113010
13782708 43 18040436599493429635
15297060 5 17844814879054759618
15328829 1 17417267497534180595
15968369 153 18199166452601146817
16112460 7 18267310833738595313
1813 80 18270397183629230043
20775438 99 17689397565432020461
23559900 14 18342459222932507234
24771750 20 17829347008977326260
3298306 158 18189330349947410117
460360 51 18261962855966335777
513532 50 17417236766753260712
5265222 85 17465682468928771292
70251023 43 18269277850537719314

> <PUBCHEM_SHAPE_MULTIPOLES>
749.78
14.18
4.62
2.64
16.77
1.2
0.06
-1.84
2.3
-7.32
1.19
1.4
-0.98
1.94

> <PUBCHEM_SHAPE_SELFOVERLAP>
1610.251

> <PUBCHEM_SHAPE_VOLUME>
416

> <PUBCHEM_COORDINATE_TYPE>
2
5
10

$$$$