24
 OpenBabel03292022253D

 99104  0  0  1  0  0  0  0  0999 V2000
    0.2657   -3.5307   -0.6151 C   0  0  0  0  0  0  0  0  0  0  0  0
   -0.0411   -2.9304    0.6342 O   0  0  0  0  0  0  0  0  0  0  0  0
    0.8034   -3.1926    1.6764 C   0  0  0  0  0  0  0  0  0  0  0  0
    0.2409   -2.9933    2.9377 C   0  0  0  0  0  0  0  0  0  0  0  0
    0.9957   -3.1170    4.1138 C   0  0  0  0  0  0  0  0  0  0  0  0
    0.2551   -2.8754    5.2400 O   0  0  0  0  0  0  0  0  0  0  0  0
    0.6268   -3.5234    6.4486 C   0  0  0  0  0  0  0  0  0  0  0  0
    2.3640   -3.3995    4.0235 C   0  0  0  0  0  0  0  0  0  0  0  0
    2.8898   -3.7363    2.7597 C   0  0  0  0  0  0  0  0  0  0  0  0
    2.1327   -3.5904    1.5867 C   0  0  0  0  0  0  0  0  0  0  0  0
    4.1630   -4.2535    2.6133 O   0  0  0  0  0  0  0  0  0  0  0  0
    4.6899   -4.8678    3.8372 C   0  0  2  0  0  0  0  0  0  0  0  0
    3.9167   -6.1613    4.1536 C   0  0  0  0  0  0  0  0  0  0  0  0
    3.4604   -6.9737    3.0999 C   0  0  0  0  0  0  0  0  0  0  0  0
    2.6829   -8.1157    3.3358 C   0  0  0  0  0  0  0  0  0  0  0  0
    2.1999   -8.9238    2.3326 O   0  0  0  0  0  0  0  0  0  0  0  0
    2.8629   -8.8449    1.0769 C   0  0  0  0  0  0  0  0  0  0  0  0
    2.3334   -8.4636    4.6564 C   0  0  0  0  0  0  0  0  0  0  0  0
    1.4984   -9.5544    4.7776 O   0  0  0  0  0  0  0  0  0  0  0  0
    1.6898  -10.3842    5.9164 C   0  0  0  0  0  0  0  0  0  0  0  0
    2.7832   -7.6664    5.7245 C   0  0  0  0  0  0  0  0  0  0  0  0
    2.3534   -7.9874    6.9862 O   0  0  0  0  0  0  0  0  0  0  0  0
    2.7306   -7.1532    8.0715 C   0  0  0  0  0  0  0  0  0  0  0  0
    3.6063   -6.5584    5.4618 C   0  0  0  0  0  0  0  0  0  0  0  0
    4.7506   -3.7276    4.8874 C   0  0  2  0  0  0  0  0  0  0  0  0
    5.3582   -4.0023    6.1798 O   0  0  0  0  0  0  0  0  0  0  0  0
    6.7066   -4.1016    6.2382 C   0  0  0  0  0  0  0  0  0  0  0  0
    7.4287   -4.2853    5.2730 O   0  0  0  0  0  0  0  0  0  0  0  0
    7.2292   -3.8912    7.6308 C   0  0  0  0  0  0  0  0  0  0  0  0
    8.6138   -4.0102    7.8357 C   0  0  0  0  0  0  0  0  0  0  0  0
    9.1792   -3.7466    9.0901 C   0  0  0  0  0  0  0  0  0  0  0  0
    8.3672   -3.3501   10.1462 C   0  0  0  0  0  0  0  0  0  0  0  0
    8.9281   -3.0397   11.3282 F   0  0  0  0  0  0  0  0  0  0  0  0
    6.9963   -3.1768    9.9654 C   0  0  0  0  0  0  0  0  0  0  0  0
    6.2349   -2.6121   11.0363 N   0  0  0  0  0  0  0  0  0  0  0  0
    5.2791   -1.6629   10.7684 C   0  0  0  0  0  0  0  0  0  0  0  0
    5.0895   -1.2201    9.6259 O   0  0  0  0  0  0  0  0  0  0  0  0
    4.4366   -1.0959   11.8649 C   0  0  0  0  0  0  0  0  0  0  0  0
    4.5494   -1.3473   13.2356 C   0  0  0  0  0  0  0  0  0  0  0  0
    3.6183   -0.7719   14.1259 C   0  0  0  0  0  0  0  0  0  0  0  0
    2.5714    0.0218   13.6470 C   0  0  0  0  0  0  0  0  0  0  0  0
    1.6589    0.5073   14.5018 F   0  0  0  0  0  0  0  0  0  0  0  0
    2.4234    0.2265   12.2829 C   0  0  0  0  0  0  0  0  0  0  0  0
    1.3018    0.8944   11.7445 N   0  0  0  0  0  0  0  0  0  0  0  0
    0.6647    0.3621   10.6309 C   0  0  0  0  0  0  0  0  0  0  0  0
    0.8769   -0.7472   10.1542 O   0  0  0  0  0  0  0  0  0  0  0  0
   -0.3725    1.2011   10.0008 C   0  0  0  0  0  0  0  0  0  0  0  0
   -1.4935    0.5710    9.4697 C   0  0  0  0  0  0  0  0  0  0  0  0
   -2.4086    1.3121    8.7327 C   0  0  0  0  0  0  0  0  0  0  0  0
   -2.2062    2.6832    8.5163 C   0  0  0  0  0  0  0  0  0  0  0  0
   -3.1738    3.2349    7.7153 O   0  0  0  0  0  0  0  0  0  0  0  0
   -3.4860    4.6003    7.9385 C   0  0  0  0  0  0  0  0  0  0  0  0
   -1.0614    3.3216    9.0374 C   0  0  0  0  0  0  0  0  0  0  0  0
   -0.8671    4.6412    8.7338 O   0  0  0  0  0  0  0  0  0  0  0  0
    0.3207    5.2706    9.1982 C   0  0  0  0  0  0  0  0  0  0  0  0
   -0.1515    2.5667    9.7912 C   0  0  0  0  0  0  0  0  0  0  0  0
    3.3850   -0.2858   11.4175 C   0  0  0  0  0  0  0  0  0  0  0  0
    6.4254   -3.4867    8.7113 C   0  0  0  0  0  0  0  0  0  0  0  0
    3.3219   -3.2590    5.1755 C   0  0  0  0  0  0  0  0  0  0  0  0
   -0.5353   -3.2645   -1.3138 H   0  0  0  0  0  0  0  0  0  0  0  0
    0.2824   -4.6211   -0.5258 H   0  0  0  0  0  0  0  0  0  0  0  0
    1.2025   -3.1496   -1.0315 H   0  0  0  0  0  0  0  0  0  0  0  0
   -0.8125   -2.7292    3.0085 H   0  0  0  0  0  0  0  0  0  0  0  0
   -0.2599   -3.6166    7.0820 H   0  0  0  0  0  0  0  0  0  0  0  0
    1.3394   -2.8950    6.9910 H   0  0  0  0  0  0  0  0  0  0  0  0
    1.0116   -4.5375    6.2893 H   0  0  0  0  0  0  0  0  0  0  0  0
    2.6084   -3.7813    0.6324 H   0  0  0  0  0  0  0  0  0  0  0  0
    5.7107   -5.1872    3.5976 H   0  0  0  0  0  0  0  0  0  0  0  0
    3.6836   -6.6674    2.0815 H   0  0  0  0  0  0  0  0  0  0  0  0
    2.5065   -9.6705    0.4535 H   0  0  0  0  0  0  0  0  0  0  0  0
    3.9467   -8.9586    1.1901 H   0  0  0  0  0  0  0  0  0  0  0  0
    2.6162   -7.9114    0.5605 H   0  0  0  0  0  0  0  0  0  0  0  0
    1.2198  -11.3505    5.7076 H   0  0  0  0  0  0  0  0  0  0  0  0
    1.1778   -9.9770    6.7929 H   0  0  0  0  0  0  0  0  0  0  0  0
    2.7507  -10.5676    6.1186 H   0  0  0  0  0  0  0  0  0  0  0  0
    2.2050   -7.5103    8.9622 H   0  0  0  0  0  0  0  0  0  0  0  0
    2.4300   -6.1129    7.9094 H   0  0  0  0  0  0  0  0  0  0  0  0
    3.8056   -7.2332    8.2611 H   0  0  0  0  0  0  0  0  0  0  0  0
    3.9761   -5.9647    6.2858 H   0  0  0  0  0  0  0  0  0  0  0  0
    5.2924   -2.8816    4.4386 H   0  0  0  0  0  0  0  0  0  0  0  0
    9.2657   -4.2818    7.0076 H   0  0  0  0  0  0  0  0  0  0  0  0
   10.2533   -3.8086    9.2345 H   0  0  0  0  0  0  0  0  0  0  0  0
    6.6867   -2.5913   11.9444 H   0  0  0  0  0  0  0  0  0  0  0  0
    5.3276   -1.9863   13.6400 H   0  0  0  0  0  0  0  0  0  0  0  0
    3.6766   -0.9684   15.1939 H   0  0  0  0  0  0  0  0  0  0  0  0
    0.7507    1.4749   12.3652 H   0  0  0  0  0  0  0  0  0  0  0  0
   -1.6384   -0.5009    9.5944 H   0  0  0  0  0  0  0  0  0  0  0  0
   -3.2734    0.8194    8.2993 H   0  0  0  0  0  0  0  0  0  0  0  0
   -4.4646    4.7882    7.4853 H   0  0  0  0  0  0  0  0  0  0  0  0
   -2.7697    5.2536    7.4330 H   0  0  0  0  0  0  0  0  0  0  0  0
   -3.5650    4.8321    9.0059 H   0  0  0  0  0  0  0  0  0  0  0  0
    0.3139    6.3050    8.8418 H   0  0  0  0  0  0  0  0  0  0  0  0
    1.2149    4.7866    8.7909 H   0  0  0  0  0  0  0  0  0  0  0  0
    0.3473    5.2961   10.2926 H   0  0  0  0  0  0  0  0  0  0  0  0
    0.7709    3.0013   10.1610 H   0  0  0  0  0  0  0  0  0  0  0  0
    3.2907   -0.0753   10.3516 H   0  0  0  0  0  0  0  0  0  0  0  0
    5.3522   -3.3730    8.5690 H   0  0  0  0  0  0  0  0  0  0  0  0
    3.3513   -2.2066    5.4861 H   0  0  0  0  0  0  0  0  0  0  0  0
    2.9811   -3.8325    6.0366 H   0  0  0  0  0  0  0  0  0  0  0  0
  1  2  1  0  0  0  0
  1 60  1  0  0  0  0
  1 61  1  0  0  0  0
  1 62  1  0  0  0  0
  2  3  1  0  0  0  0
  3  4  1  0  0  0  0
  3 10  2  0  0  0  0
  4  5  2  0  0  0  0
  4 63  1  0  0  0  0
  5  6  1  0  0  0  0
  5  8  1  0  0  0  0
  6  7  1  0  0  0  0
  7 64  1  0  0  0  0
  7 65  1  0  0  0  0
  7 66  1  0  0  0  0
  8  9  2  0  0  0  0
  8 59  1  0  0  0  0
  9 10  1  0  0  0  0
  9 11  1  0  0  0  0
 10 67  1  0  0  0  0
 11 12  1  0  0  0  0
 12 13  1  0  0  0  0
 12 25  1  0  0  0  0
 12 68  1  6  0  0  0
 13 14  1  0  0  0  0
 13 24  2  0  0  0  0
 14 15  2  0  0  0  0
 14 69  1  0  0  0  0
 15 16  1  0  0  0  0
 15 18  1  0  0  0  0
 16 17  1  0  0  0  0
 17 70  1  0  0  0  0
 17 71  1  0  0  0  0
 17 72  1  0  0  0  0
 18 19  1  0  0  0  0
 18 21  2  0  0  0  0
 19 20  1  0  0  0  0
 20 73  1  0  0  0  0
 20 74  1  0  0  0  0
 20 75  1  0  0  0  0
 21 22  1  0  0  0  0
 21 24  1  0  0  0  0
 22 23  1  0  0  0  0
 23 76  1  0  0  0  0
 23 77  1  0  0  0  0
 23 78  1  0  0  0  0
 24 79  1  0  0  0  0
 25 59  1  0  0  0  0
 25 26  1  0  0  0  0
 25 80  1  6  0  0  0
 26 27  1  0  0  0  0
 27 28  2  0  0  0  0
 27 29  1  0  0  0  0
 29 30  1  0  0  0  0
 29 58  2  0  0  0  0
 30 31  2  0  0  0  0
 30 81  1  0  0  0  0
 31 32  1  0  0  0  0
 31 82  1  0  0  0  0
 32 33  1  0  0  0  0
 32 34  2  0  0  0  0
 34 35  1  0  0  0  0
 34 58  1  0  0  0  0
 35 36  1  0  0  0  0
 35 83  1  0  0  0  0
 36 37  2  0  0  0  0
 36 38  1  0  0  0  0
 38 39  1  0  0  0  0
 38 57  2  0  0  0  0
 39 40  2  0  0  0  0
 39 84  1  0  0  0  0
 40 41  1  0  0  0  0
 40 85  1  0  0  0  0
 41 42  1  0  0  0  0
 41 43  2  0  0  0  0
 43 44  1  0  0  0  0
 43 57  1  0  0  0  0
 44 45  1  0  0  0  0
 44 86  1  0  0  0  0
 45 46  2  0  0  0  0
 45 47  1  0  0  0  0
 47 48  1  0  0  0  0
 47 56  2  0  0  0  0
 48 49  2  0  0  0  0
 48 87  1  0  0  0  0
 49 50  1  0  0  0  0
 49 88  1  0  0  0  0
 50 51  1  0  0  0  0
 50 53  2  0  0  0  0
 51 52  1  0  0  0  0
 52 89  1  0  0  0  0
 52 90  1  0  0  0  0
 52 91  1  0  0  0  0
 53 54  1  0  0  0  0
 53 56  1  0  0  0  0
 54 55  1  0  0  0  0
 55 92  1  0  0  0  0
 55 93  1  0  0  0  0
 55 94  1  0  0  0  0
 56 95  1  0  0  0  0
 57 96  1  0  0  0  0
 58 97  1  0  0  0  0
 59 98  1  0  0  0  0
 59 99  1  0  0  0  0
M  END
>  <Energy>
233.661

$$$$