71492428
  -OEChem-03242010103D

 71 74  0     1  0  0  0  0  0999 V2000
    1.8040   -1.4562   -0.7281 O   0  0  0  0  0  0  0  0  0  0  0  0
    0.1438    0.3805    0.7436 O   0  0  0  0  0  0  0  0  0  0  0  0
    4.6761    1.3932    1.9373 O   0  0  0  0  0  0  0  0  0  0  0  0
    5.8445    0.2336   -2.5269 O   0  0  0  0  0  0  0  0  0  0  0  0
   -2.7790   -2.2858   -2.4989 O   0  0  0  0  0  0  0  0  0  0  0  0
   -2.4113   -5.1483    1.3232 O   0  0  0  0  0  0  0  0  0  0  0  0
   -3.7970   -4.3289   -0.9304 O   0  0  0  0  0  0  0  0  0  0  0  0
   -0.7366    1.0734    2.7547 O   0  0  0  0  0  0  0  0  0  0  0  0
   -3.6909    4.9427    1.2177 O   0  0  0  0  0  0  0  0  0  0  0  0
   -3.3377    5.0291   -1.5384 O   0  0  0  0  0  0  0  0  0  0  0  0
    0.8852   -0.6433    1.4087 C   0  0  1  0  0  0  0  0  0  0  0  0
    1.1002   -1.8344    0.4659 C   0  0  1  0  0  0  0  0  0  0  0  0
    2.2402   -0.0838    1.8374 C   0  0  0  0  0  0  0  0  0  0  0  0
    3.1901   -0.0141    0.6723 C   0  0  0  0  0  0  0  0  0  0  0  0
   -0.2101   -2.5024    0.0925 C   0  0  0  0  0  0  0  0  0  0  0  0
    2.9279   -0.6988   -0.5211 C   0  0  0  0  0  0  0  0  0  0  0  0
    4.3713    0.7322    0.7837 C   0  0  0  0  0  0  0  0  0  0  0  0
    3.8130   -0.6046   -1.5981 C   0  0  0  0  0  0  0  0  0  0  0  0
   -0.7195   -3.5313    0.8846 C   0  0  0  0  0  0  0  0  0  0  0  0
   -0.9052   -2.0871   -1.0434 C   0  0  0  0  0  0  0  0  0  0  0  0
    5.2609    0.8138   -0.2880 C   0  0  0  0  0  0  0  0  0  0  0  0
    4.9797    0.1491   -1.4795 C   0  0  0  0  0  0  0  0  0  0  0  0
   -2.1098   -2.7007   -1.3870 C   0  0  0  0  0  0  0  0  0  0  0  0
   -1.9241   -4.1449    0.5409 C   0  0  0  0  0  0  0  0  0  0  0  0
   -0.6257    1.1653    1.5419 C   0  0  0  0  0  0  0  0  0  0  0  0
   -2.6193   -3.7294   -0.5948 C   0  0  0  0  0  0  0  0  0  0  0  0
   -1.3415    2.1844    0.7335 C   0  0  0  0  0  0  0  0  0  0  0  0
    5.4302    0.6771    2.9123 C   0  0  0  0  0  0  0  0  0  0  0  0
   -2.1914    3.0981    1.3569 C   0  0  0  0  0  0  0  0  0  0  0  0
   -1.1644    2.2277   -0.6493 C   0  0  0  0  0  0  0  0  0  0  0  0
    7.0189    1.0217   -2.3371 C   0  0  0  0  0  0  0  0  0  0  0  0
   -2.8640    4.0553    0.5973 C   0  0  0  0  0  0  0  0  0  0  0  0
   -2.1892   -1.2286   -3.2530 C   0  0  0  0  0  0  0  0  0  0  0  0
   -1.6389   -5.5120    2.4658 C   0  0  0  0  0  0  0  0  0  0  0  0
   -1.8373    3.1848   -1.4089 C   0  0  0  0  0  0  0  0  0  0  0  0
   -4.9885   -3.7615   -0.3904 C   0  0  0  0  0  0  0  0  0  0  0  0
   -2.6870    4.0987   -0.7857 C   0  0  0  0  0  0  0  0  0  0  0  0
   -3.8161    4.8303    2.6340 C   0  0  0  0  0  0  0  0  0  0  0  0
   -3.1015    5.0049   -2.9449 C   0  0  0  0  0  0  0  0  0  0  0  0
    0.3387   -0.9884    2.2966 H   0  0  0  0  0  0  0  0  0  0  0  0
    1.7226   -2.5911    0.9661 H   0  0  0  0  0  0  0  0  0  0  0  0
    2.6759   -0.7473    2.5936 H   0  0  0  0  0  0  0  0  0  0  0  0
    2.1143    0.9123    2.2765 H   0  0  0  0  0  0  0  0  0  0  0  0
    3.5969   -1.1243   -2.5285 H   0  0  0  0  0  0  0  0  0  0  0  0
   -0.1370   -3.8088    1.7566 H   0  0  0  0  0  0  0  0  0  0  0  0
   -0.4771   -1.2752   -1.6200 H   0  0  0  0  0  0  0  0  0  0  0  0
    6.1531    1.4119   -0.1341 H   0  0  0  0  0  0  0  0  0  0  0  0
    5.5082    1.2986    3.8085 H   0  0  0  0  0  0  0  0  0  0  0  0
    6.4392    0.4775    2.5376 H   0  0  0  0  0  0  0  0  0  0  0  0
    4.9406   -0.2635    3.1815 H   0  0  0  0  0  0  0  0  0  0  0  0
   -2.2948    3.0225    2.4337 H   0  0  0  0  0  0  0  0  0  0  0  0
   -0.5124    1.5358   -1.1752 H   0  0  0  0  0  0  0  0  0  0  0  0
    7.5906    0.9791   -3.2700 H   0  0  0  0  0  0  0  0  0  0  0  0
    7.6592    0.6071   -1.5511 H   0  0  0  0  0  0  0  0  0  0  0  0
    6.7732    2.0745   -2.1611 H   0  0  0  0  0  0  0  0  0  0  0  0
   -1.2191   -1.5204   -3.6696 H   0  0  0  0  0  0  0  0  0  0  0  0
   -2.8517   -1.0314   -4.1024 H   0  0  0  0  0  0  0  0  0  0  0  0
   -2.1343   -0.3010   -2.6732 H   0  0  0  0  0  0  0  0  0  0  0  0
   -0.6578   -5.9072    2.1812 H   0  0  0  0  0  0  0  0  0  0  0  0
   -1.5657   -4.6873    3.1830 H   0  0  0  0  0  0  0  0  0  0  0  0
   -2.1734   -6.3239    2.9701 H   0  0  0  0  0  0  0  0  0  0  0  0
   -1.6521    3.1590   -2.4773 H   0  0  0  0  0  0  0  0  0  0  0  0
   -5.8395   -4.3474   -0.7483 H   0  0  0  0  0  0  0  0  0  0  0  0
   -5.1098   -2.7271   -0.7273 H   0  0  0  0  0  0  0  0  0  0  0  0
   -4.9725   -3.8005    0.7034 H   0  0  0  0  0  0  0  0  0  0  0  0
   -4.5107    5.6124    2.9583 H   0  0  0  0  0  0  0  0  0  0  0  0
   -2.8641    5.0228    3.1405 H   0  0  0  0  0  0  0  0  0  0  0  0
   -4.2596    3.8722    2.9260 H   0  0  0  0  0  0  0  0  0  0  0  0
   -3.6979    5.8107   -3.3856 H   0  0  0  0  0  0  0  0  0  0  0  0
   -3.4486    4.0693   -3.3965 H   0  0  0  0  0  0  0  0  0  0  0  0
   -2.0537    5.2191   -3.1820 H   0  0  0  0  0  0  0  0  0  0  0  0
  1 12  1  0  0  0  0
  1 16  1  0  0  0  0
  2 11  1  0  0  0  0
  2 25  1  0  0  0  0
  3 17  1  0  0  0  0
  3 28  1  0  0  0  0
  4 22  1  0  0  0  0
  4 31  1  0  0  0  0
  5 23  1  0  0  0  0
  5 33  1  0  0  0  0
  6 24  1  0  0  0  0
  6 34  1  0  0  0  0
  7 26  1  0  0  0  0
  7 36  1  0  0  0  0
  8 25  2  0  0  0  0
  9 32  1  0  0  0  0
  9 38  1  0  0  0  0
 10 37  1  0  0  0  0
 10 39  1  0  0  0  0
 11 12  1  0  0  0  0
 11 13  1  0  0  0  0
 11 40  1  0  0  0  0
 12 15  1  0  0  0  0
 12 41  1  0  0  0  0
 13 14  1  0  0  0  0
 13 42  1  0  0  0  0
 13 43  1  0  0  0  0
 14 16  2  0  0  0  0
 14 17  1  0  0  0  0
 15 19  2  0  0  0  0
 15 20  1  0  0  0  0
 16 18  1  0  0  0  0
 17 21  2  0  0  0  0
 18 22  2  0  0  0  0
 18 44  1  0  0  0  0
 19 24  1  0  0  0  0
 19 45  1  0  0  0  0
 20 23  2  0  0  0  0
 20 46  1  0  0  0  0
 21 22  1  0  0  0  0
 21 47  1  0  0  0  0
 23 26  1  0  0  0  0
 24 26  2  0  0  0  0
 25 27  1  0  0  0  0
 27 29  2  0  0  0  0
 27 30  1  0  0  0  0
 28 48  1  0  0  0  0
 28 49  1  0  0  0  0
 28 50  1  0  0  0  0
 29 32  1  0  0  0  0
 29 51  1  0  0  0  0
 30 35  2  0  0  0  0
 30 52  1  0  0  0  0
 31 53  1  0  0  0  0
 31 54  1  0  0  0  0
 31 55  1  0  0  0  0
 32 37  2  0  0  0  0
 33 56  1  0  0  0  0
 33 57  1  0  0  0  0
 33 58  1  0  0  0  0
 34 59  1  0  0  0  0
 34 60  1  0  0  0  0
 34 61  1  0  0  0  0
 35 37  1  0  0  0  0
 35 62  1  0  0  0  0
 36 63  1  0  0  0  0
 36 64  1  0  0  0  0
 36 65  1  0  0  0  0
 38 66  1  0  0  0  0
 38 67  1  0  0  0  0
 38 68  1  0  0  0  0
 39 69  1  0  0  0  0
 39 70  1  0  0  0  0
 39 71  1  0  0  0  0
M  END
> <PUBCHEM_COMPOUND_CID>
71492428

> <PUBCHEM_CONFORMER_RMSD>
1.2

> <PUBCHEM_CONFORMER_DIVERSEORDER>
3
10
4
7
19
5
12
16
13
20
9
14
18
8
6
17
11
15
1
2

> <PUBCHEM_MMFF94_PARTIAL_CHARGES>
46
1 -0.36
10 -0.36
11 0.28
12 0.42
13 0.14
14 -0.14
15 -0.14
16 0.08
17 0.08
18 -0.15
19 -0.15
2 -0.43
20 -0.15
21 -0.15
22 0.08
23 0.08
24 0.08
25 0.63
26 0.08
27 0.09
28 0.28
29 -0.15
3 -0.36
30 -0.15
31 0.28
32 0.08
33 0.28
34 0.28
35 -0.15
36 0.28
37 0.08
38 0.28
39 0.28
4 -0.36
44 0.15
45 0.15
46 0.15
47 0.15
5 -0.36
51 0.15
52 0.15
6 -0.36
62 0.15
7 -0.36
8 -0.57
9 -0.36

> <PUBCHEM_EFFECTIVE_ROTOR_COUNT>
11.8

> <PUBCHEM_PHARMACOPHORE_FEATURES>
13
1 1 acceptor
1 10 acceptor
1 3 acceptor
1 4 acceptor
1 5 acceptor
1 6 acceptor
1 7 acceptor
1 8 acceptor
1 9 acceptor
6 1 11 12 13 14 16 rings
6 14 16 17 18 21 22 rings
6 15 19 20 23 24 26 rings
6 27 29 30 32 35 37 rings

> <PUBCHEM_HEAVY_ATOM_COUNT>
39

> <PUBCHEM_ATOM_DEF_STEREO_COUNT>
2

> <PUBCHEM_ATOM_UDEF_STEREO_COUNT>
0

> <PUBCHEM_BOND_DEF_STEREO_COUNT>
0

> <PUBCHEM_BOND_UDEF_STEREO_COUNT>
0

> <PUBCHEM_ISOTOPIC_ATOM_COUNT>
0

> <PUBCHEM_COMPONENT_COUNT>
1

> <PUBCHEM_CACTVS_TAUTO_COUNT>
1

> <PUBCHEM_CONFORMER_ID>
0442E34C00000003

> <PUBCHEM_MMFF94_ENERGY>
182.2891

> <PUBCHEM_FEATURE_SELFOVERLAP>
66.026

> <PUBCHEM_SHAPE_FINGERPRINT>
10815517 723 18198082420161379339
11505856 67 18262532471429497252
11991303 11 18267320758547295942
12160290 23 18272931617986943354
12741549 16 17981596384349762483
12788726 201 18337938078099449099
13540713 4 17775568655029570544
14294032 229 18337121089615706408
15064986 96 10413444484770999860
15198563 99 18265345073548951732
15219462 58 18124846154285953602
15444296 121 18119835722584762875
15484559 13 17554896472806634436
16988056 13 17836633498947537799
19319366 153 17694188129531676509
21033650 10 18341602729423101646
21304303 282 18120905417952898738
21365058 113 17833561462885109935
21772528 278 18198357160060333005
22182313 1 17560798875464506360
22440779 20 18058465359328628344
24893989 43 16259745679358943893
437795 70 17844503665813961327
44802255 64 16963014052412757966
46939830 39 18191879031740051529
5080951 261 17917992768072684282
5081480 168 17836069440613219679
6086070 43 17759771004737561831
6677587 24 16813443005650110949
9658208 31 18200880569858930528

> <PUBCHEM_SHAPE_MULTIPOLES>
743.91
10.86
8.97
3.17
19.51
0.35
0.39
-5.92
3.69
-20.38
-1.31
0.48
-1.45
-0.63

> <PUBCHEM_SHAPE_SELFOVERLAP>
1605.734

> <PUBCHEM_SHAPE_VOLUME>
412

> <PUBCHEM_COORDINATE_TYPE>
2
5
10

$$$$