3
 OpenBabel03302013203D

 44 45  0  0  1  0  0  0  0  0999 V2000
    2.3437   -0.5018   -1.4117 C   0  0  0  0  0  0  0  0  0  0  0  0
    2.1518    0.3749   -0.3635 O   0  0  0  0  0  0  0  0  0  0  0  0
    2.9806    1.4037   -0.0554 C   0  0  0  0  0  0  0  0  0  0  0  0
    4.1636    1.6462   -0.7599 C   0  0  0  0  0  0  0  0  0  0  0  0
    4.9547    2.7525   -0.4677 C   0  0  0  0  0  0  0  0  0  0  0  0
    4.6045    3.6836    0.5498 C   0  0  0  0  0  0  0  0  0  0  0  0
    5.4099    4.8825    0.8165 N   0  0  0  0  0  0  0  0  0  0  0  0
    6.6291    5.1584    0.0495 C   0  0  0  0  0  0  0  0  0  0  0  0
    4.9545    5.9287    1.7183 C   0  0  0  0  0  0  0  0  0  0  0  0
    3.6181    6.0827    1.9407 N   0  0  0  0  0  0  0  0  0  0  0  0
    3.0889    7.0641    2.7225 C   0  0  0  0  0  0  0  0  0  0  0  0
    1.6085    7.1444    2.9077 C   0  0  0  0  0  0  0  0  0  0  0  0
    3.9063    7.9726    3.3129 N   0  0  0  0  0  0  0  0  0  0  0  0
    5.2444    7.8666    3.1420 C   0  0  0  0  0  0  0  0  0  0  0  0
    5.8062    6.8793    2.3513 C   0  0  0  0  0  0  0  0  0  0  0  0
    7.2877    7.1033    2.2797 C   0  0  0  0  0  0  0  0  0  0  0  0
    7.5535    8.0576    3.4574 C   0  0  3  0  0  0  0  0  0  0  0  0
    7.8345    7.2232    4.7271 C   0  0  0  0  0  0  0  0  0  0  0  0
    6.2468    8.8442    3.6333 C   0  0  0  0  0  0  0  0  0  0  0  0
    3.4330    3.3597    1.2996 C   0  0  0  0  0  0  0  0  0  0  0  0
    2.6371    2.2550    0.9879 C   0  0  0  0  0  0  0  0  0  0  0  0
    2.2593   -1.9071    1.9590 Cl  0  0  0  0  0  0  0  0  0  0  0  0
    1.4812   -1.1945   -1.4725 H   0  0  0  0  0  0  0  0  0  0  0  0
    3.2724   -1.0887   -1.2494 H   0  0  0  0  0  0  0  0  0  0  0  0
    2.4167    0.0566   -2.3699 H   0  0  0  0  0  0  0  0  0  0  0  0
    4.4815    0.9909   -1.5588 H   0  0  0  0  0  0  0  0  0  0  0  0
    5.8209    2.8250   -1.0907 H   0  0  0  0  0  0  0  0  0  0  0  0
    6.8817    4.4512   -0.7409 H   0  0  0  0  0  0  0  0  0  0  0  0
    7.5216    5.1361    0.6844 H   0  0  0  0  0  0  0  0  0  0  0  0
    6.5237    6.1363   -0.4686 H   0  0  0  0  0  0  0  0  0  0  0  0
    1.1018    6.3300    2.3454 H   0  0  0  0  0  0  0  0  0  0  0  0
    1.2341    8.1194    2.5314 H   0  0  0  0  0  0  0  0  0  0  0  0
    1.3562    7.0416    3.9830 H   0  0  0  0  0  0  0  0  0  0  0  0
    7.4944    7.5927    1.3042 H   0  0  0  0  0  0  0  0  0  0  0  0
    7.9155    6.2017    2.4204 H   0  0  0  0  0  0  0  0  0  0  0  0
    8.4467    8.7031    3.3135 H   0  0  0  0  0  0  0  0  0  0  0  0
    6.9981    6.5295    4.9600 H   0  0  0  0  0  0  0  0  0  0  0  0
    8.0009    7.8935    5.5963 H   0  0  0  0  0  0  0  0  0  0  0  0
    8.7598    6.6226    4.5842 H   0  0  0  0  0  0  0  0  0  0  0  0
    6.1949    9.7185    2.9509 H   0  0  0  0  0  0  0  0  0  0  0  0
    6.1030    9.1715    4.6860 H   0  0  0  0  0  0  0  0  0  0  0  0
    3.0748    3.9250    2.1363 H   0  0  0  0  0  0  0  0  0  0  0  0
    1.7351    2.0700    1.5601 H   0  0  0  0  0  0  0  0  0  0  0  0
    2.4768   -2.3314    0.6700 H   0  0  0  0  0  0  0  0  0  0  0  0
  1  2  1  0  0  0  0
  1 23  1  0  0  0  0
  1 24  1  0  0  0  0
  1 25  1  0  0  0  0
  2  3  1  0  0  0  0
  3  4  1  0  0  0  0
  3 21  2  0  0  0  0
  4  5  2  0  0  0  0
  4 26  1  0  0  0  0
  5  6  1  0  0  0  0
  5 27  1  0  0  0  0
  6  7  1  0  0  0  0
  6 20  2  0  0  0  0
  7  8  1  0  0  0  0
  7  9  1  0  0  0  0
  8 28  1  0  0  0  0
  8 29  1  0  0  0  0
  8 30  1  0  0  0  0
  9 10  1  0  0  0  0
  9 15  2  0  0  0  0
 10 11  2  0  0  0  0
 11 12  1  0  0  0  0
 11 13  1  0  0  0  0
 12 31  1  0  0  0  0
 12 32  1  0  0  0  0
 12 33  1  0  0  0  0
 13 14  2  0  0  0  0
 14 15  1  0  0  0  0
 14 19  1  0  0  0  0
 15 16  1  0  0  0  0
 16 17  1  0  0  0  0
 16 34  1  0  0  0  0
 16 35  1  0  0  0  0
 17 18  1  0  0  0  0
 17 19  1  0  0  0  0
 17 36  1  0  0  0  0
 18 37  1  0  0  0  0
 18 38  1  0  0  0  0
 18 39  1  0  0  0  0
 19 40  1  0  0  0  0
 19 41  1  0  0  0  0
 20 21  1  0  0  0  0
 20 42  1  0  0  0  0
 21 43  1  0  0  0  0
 22 44  1  0  0  0  0
M  END
$$$$