17
 OpenBabel03292021423D

172175  0  0  1  0  0  0  0  0999 V2000
    6.6877    0.9266    0.9281 C   0  0  0  0  0  0  0  0  0  0  0  0
    7.7498    1.6509    0.0466 C   0  0  0  0  0  0  0  0  0  0  0  0
    8.0965    3.1883    0.2893 C   0  0  2  0  0  0  0  0  0  0  0  0
    6.7892    3.7556    0.9556 C   0  0  0  0  0  0  0  0  0  0  0  0
    8.7587    3.8537   -1.1394 C   0  0  2  0  0  0  0  0  0  0  0  0
   10.2282    4.9393   -1.1045 N   0  0  0  0  0  0  0  0  0  0  0  0
   11.7281    4.6661   -1.2713 C   0  0  0  0  0  0  0  0  0  0  0  0
   11.9950    3.4477   -1.1942 O   0  0  0  0  0  0  0  0  0  0  0  0
   13.2956    5.7601   -1.4319 C   0  0  2  0  0  0  0  0  0  0  0  0
   13.4370    7.2754   -1.3391 C   0  0  0  0  0  0  0  0  0  0  0  0
   13.5270    7.8307   -2.7628 C   0  0  0  0  0  0  0  0  0  0  0  0
   14.2905    6.7482   -3.5299 C   0  0  0  0  0  0  0  0  0  0  0  0
   14.6086    5.7301   -2.5184 N   0  0  0  0  0  0  0  0  0  0  0  0
   16.0964    5.7858   -2.4396 C   0  0  0  0  0  0  0  0  0  0  0  0
   16.7362    5.5109   -3.4737 O   0  0  0  0  0  0  0  0  0  0  0  0
   16.9935    6.2734   -1.1849 C   0  0  2  0  0  0  0  0  0  0  0  0
   18.5766    6.5681   -1.2147 C   0  0  0  0  0  0  0  0  0  0  0  0
   19.3357    7.8963   -1.3702 C   0  0  0  0  0  0  0  0  0  0  0  0
   19.6437    8.7352   -0.2759 C   0  0  0  0  0  0  0  0  0  0  0  0
   20.5853    9.7841   -0.3909 C   0  0  0  0  0  0  0  0  0  0  0  0
   21.2442   10.0080   -1.5958 C   0  0  0  0  0  0  0  0  0  0  0  0
   20.9719    9.1813   -2.6808 C   0  0  0  0  0  0  0  0  0  0  0  0
   20.0309    8.1424   -2.5679 C   0  0  0  0  0  0  0  0  0  0  0  0
   16.8778    5.0976   -0.3106 N   0  0  0  0  0  0  0  0  0  0  0  0
   17.5098    3.8446   -0.7352 C   0  0  0  0  0  0  0  0  0  0  0  0
   16.0950    5.2585    0.7924 C   0  0  0  0  0  0  0  0  0  0  0  0
   15.6346    6.3738    1.0332 O   0  0  0  0  0  0  0  0  0  0  0  0
   15.7602    4.0297    1.6275 C   0  0  2  0  0  0  0  0  0  0  0  0
   14.2950    3.6974    1.3598 C   0  0  0  0  0  0  0  0  0  0  0  0
   13.8263    2.4788    2.0872 C   0  0  0  0  0  0  0  0  0  0  0  0
   13.0853    2.6108    3.2629 C   0  0  0  0  0  0  0  0  0  0  0  0
   12.7214    1.4792    3.9816 C   0  0  0  0  0  0  0  0  0  0  0  0
   13.0896    0.2158    3.5209 C   0  0  0  0  0  0  0  0  0  0  0  0
   13.8034    0.0790    2.3314 C   0  0  0  0  0  0  0  0  0  0  0  0
   14.1688    1.2101    1.6102 C   0  0  0  0  0  0  0  0  0  0  0  0
   16.2040    4.1127    3.0168 N   0  0  0  0  0  0  0  0  0  0  0  0
   15.8272    4.8902    4.0613 C   0  0  0  0  0  0  0  0  0  0  0  0
   16.1291    4.4519    5.1779 O   0  0  0  0  0  0  0  0  0  0  0  0
   15.1445    6.2655    3.8753 C   0  0  2  0  0  0  0  0  0  0  0  0
   16.1030    7.4633    4.1599 C   0  0  0  0  0  0  0  0  0  0  0  0
   15.4273    8.7978    3.8131 C   0  0  0  0  0  0  0  0  0  0  0  0
   17.4398    7.3986    3.4105 C   0  0  0  0  0  0  0  0  0  0  0  0
   13.8950    6.3506    4.6753 N   0  0  0  0  0  0  0  0  0  0  0  0
   14.0766    6.3373    6.1205 C   0  0  0  0  0  0  0  0  0  0  0  0
   12.7006    6.4727    3.9658 C   0  0  0  0  0  0  0  0  0  0  0  0
   12.6961    6.3014    2.7362 O   0  0  0  0  0  0  0  0  0  0  0  0
   11.3576    6.9692    4.5579 C   0  0  1  0  0  0  0  0  0  0  0  0
   11.0226    6.6990    6.0318 C   0  0  1  0  0  0  0  0  0  0  0  0
   11.4259    7.8766    6.9263 C   0  0  0  0  0  0  0  0  0  0  0  0
    9.5277    6.3627    6.2411 C   0  0  0  0  0  0  0  0  0  0  0  0
    9.2185    6.0071    7.6938 C   0  0  0  0  0  0  0  0  0  0  0  0
   11.2975    8.3917    4.2497 O   0  0  0  0  0  0  0  0  0  0  0  0
   10.2653    8.8492    3.4853 C   0  0  0  0  0  0  0  0  0  0  0  0
    9.3435    9.4858    3.9875 O   0  0  0  0  0  0  0  0  0  0  0  0
   10.4236    8.5934    1.9759 C   0  0  2  0  0  0  0  0  0  0  0  0
   11.2548    9.5877    1.1339 C   0  0  0  0  0  0  0  0  0  0  0  0
   12.7021    9.6047    1.6216 C   0  0  0  0  0  0  0  0  0  0  0  0
   11.1757    9.1622   -0.3480 C   0  0  0  0  0  0  0  0  0  0  0  0
   10.7483   10.9191    1.1918 O   0  0  0  0  0  0  0  0  0  0  0  0
    9.1143    8.3425    1.3671 N   0  0  0  0  0  0  0  0  0  0  0  0
    8.2938    9.4563    0.9262 C   0  0  0  0  0  0  0  0  0  0  0  0
    8.7624    7.0457    1.4280 C   0  0  0  0  0  0  0  0  0  0  0  0
    9.2575    6.2192    2.1982 O   0  0  0  0  0  0  0  0  0  0  0  0
    8.0200    6.4896    0.4915 N   0  0  0  0  0  0  0  0  0  0  0  0
    7.1686    6.8820   -0.5997 C   0  0  2  0  0  0  0  0  0  0  0  0
    7.9528    7.3726   -1.8251 C   0  0  0  0  0  0  0  0  0  0  0  0
    7.2660    8.0812   -2.9835 C   0  0  0  0  0  0  0  0  0  0  0  0
    8.1054    8.0851   -4.2417 C   0  0  0  0  0  0  0  0  0  0  0  0
    7.6998    7.6522   -5.3185 O   0  0  0  0  0  0  0  0  0  0  0  0
    9.3199    8.6515   -4.1050 O   0  0  0  0  0  0  0  0  0  0  0  0
    5.7786    7.3872   -0.0631 C   0  0  0  0  0  0  0  0  0  0  0  0
    5.6257    7.9544    0.9787 O   0  0  0  0  0  0  0  0  0  0  0  0
    4.6644    7.0783   -0.7647 N   0  0  0  0  0  0  0  0  0  0  0  0
    4.4207    5.7670   -1.0501 C   0  0  0  0  0  0  0  0  0  0  0  0
    3.6258    5.1143   -0.3824 O   0  0  0  0  0  0  0  0  0  0  0  0
    5.1719    5.2163   -2.3010 C   0  0  2  0  0  0  0  0  0  0  0  0
    4.0988    5.2277   -3.4471 C   0  0  0  0  0  0  0  0  0  0  0  0
    4.5818    4.5711   -4.7338 C   0  0  0  0  0  0  0  0  0  0  0  0
    3.6653    6.6805   -3.7982 C   0  0  0  0  0  0  0  0  0  0  0  0
    5.9989    4.0123   -1.9032 N   0  0  0  0  0  0  0  0  0  0  0  0
    5.1946    2.7829   -2.0053 C   0  0  0  0  0  0  0  0  0  0  0  0
    7.4191    3.9930   -2.2949 C   0  0  0  0  0  0  0  0  0  0  0  0
    7.6871    4.2037   -3.4830 O   0  0  0  0  0  0  0  0  0  0  0  0
    7.1606    0.2943    1.6835 H   0  0  0  0  0  0  0  0  0  0  0  0
    6.0685    0.2694    0.3009 H   0  0  0  0  0  0  0  0  0  0  0  0
    5.9665    1.5553    1.4586 H   0  0  0  0  0  0  0  0  0  0  0  0
    7.4093    1.5401   -0.9876 H   0  0  0  0  0  0  0  0  0  0  0  0
    8.6734    1.0695    0.1023 H   0  0  0  0  0  0  0  0  0  0  0  0
    8.8893    3.2416    1.0434 H   0  0  0  0  0  0  0  0  0  0  0  0
    5.8715    3.3573    0.5163 H   0  0  0  0  0  0  0  0  0  0  0  0
    6.5862    4.8143    0.9883 H   0  0  0  0  0  0  0  0  0  0  0  0
    6.7736    3.4585    2.0141 H   0  0  0  0  0  0  0  0  0  0  0  0
    9.2866    2.9876   -1.5634 H   0  0  0  0  0  0  0  0  0  0  0  0
   10.0032    5.8543   -0.7396 H   0  0  0  0  0  0  0  0  0  0  0  0
   13.7883    5.4194   -0.5254 H   0  0  0  0  0  0  0  0  0  0  0  0
   14.4338    7.5017   -0.9231 H   0  0  0  0  0  0  0  0  0  0  0  0
   12.8545    7.7725   -0.6103 H   0  0  0  0  0  0  0  0  0  0  0  0
   14.0921    8.7770   -2.7825 H   0  0  0  0  0  0  0  0  0  0  0  0
   12.5562    8.0241   -3.2226 H   0  0  0  0  0  0  0  0  0  0  0  0
   15.1802    7.2061   -3.9943 H   0  0  0  0  0  0  0  0  0  0  0  0
   13.6943    6.3038   -4.3279 H   0  0  0  0  0  0  0  0  0  0  0  0
   16.5353    7.1811   -0.7842 H   0  0  0  0  0  0  0  0  0  0  0  0
   18.9459    6.2477   -0.2202 H   0  0  0  0  0  0  0  0  0  0  0  0
   19.0625    5.8643   -1.8996 H   0  0  0  0  0  0  0  0  0  0  0  0
   19.2291    8.5461    0.7125 H   0  0  0  0  0  0  0  0  0  0  0  0
   20.8399   10.3993    0.4711 H   0  0  0  0  0  0  0  0  0  0  0  0
   21.9885   10.7990   -1.6817 H   0  0  0  0  0  0  0  0  0  0  0  0
   21.5221    9.3153   -3.6095 H   0  0  0  0  0  0  0  0  0  0  0  0
   19.9097    7.4675   -3.4122 H   0  0  0  0  0  0  0  0  0  0  0  0
   18.2378    4.0030   -1.5337 H   0  0  0  0  0  0  0  0  0  0  0  0
   16.7342    3.1666   -1.0958 H   0  0  0  0  0  0  0  0  0  0  0  0
   18.0426    3.3988    0.1097 H   0  0  0  0  0  0  0  0  0  0  0  0
   16.3345    3.1777    1.2573 H   0  0  0  0  0  0  0  0  0  0  0  0
   13.6444    4.5448    1.5768 H   0  0  0  0  0  0  0  0  0  0  0  0
   14.1771    3.5080    0.2857 H   0  0  0  0  0  0  0  0  0  0  0  0
   12.7994    3.5946    3.6247 H   0  0  0  0  0  0  0  0  0  0  0  0
   12.1577    1.5859    4.9030 H   0  0  0  0  0  0  0  0  0  0  0  0
   12.8150   -0.6662    4.0900 H   0  0  0  0  0  0  0  0  0  0  0  0
   14.0781   -0.9052    1.9650 H   0  0  0  0  0  0  0  0  0  0  0  0
   14.7185    1.1007    0.6782 H   0  0  0  0  0  0  0  0  0  0  0  0
   16.5711    3.2398    3.3800 H   0  0  0  0  0  0  0  0  0  0  0  0
   14.8332    6.3438    2.8542 H   0  0  0  0  0  0  0  0  0  0  0  0
   16.3455    7.4797    5.2288 H   0  0  0  0  0  0  0  0  0  0  0  0
   15.2451    8.8715    2.7360 H   0  0  0  0  0  0  0  0  0  0  0  0
   16.0624    9.6424    4.0994 H   0  0  0  0  0  0  0  0  0  0  0  0
   14.4712    8.9187    4.3306 H   0  0  0  0  0  0  0  0  0  0  0  0
   17.3166    7.5589    2.3361 H   0  0  0  0  0  0  0  0  0  0  0  0
   17.9544    6.4468    3.5636 H   0  0  0  0  0  0  0  0  0  0  0  0
   18.1077    8.1903    3.7702 H   0  0  0  0  0  0  0  0  0  0  0  0
   15.0841    6.0313    6.4050 H   0  0  0  0  0  0  0  0  0  0  0  0
   13.4072    5.6211    6.5897 H   0  0  0  0  0  0  0  0  0  0  0  0
   13.9565    7.3441    6.5095 H   0  0  0  0  0  0  0  0  0  0  0  0
   10.6090    6.4273    3.9736 H   0  0  0  0  0  0  0  0  0  0  0  0
   11.5335    5.7844    6.3368 H   0  0  0  0  0  0  0  0  0  0  0  0
   10.6080    8.5951    7.0340 H   0  0  0  0  0  0  0  0  0  0  0  0
   12.2731    8.4367    6.5233 H   0  0  0  0  0  0  0  0  0  0  0  0
   11.7100    7.5201    7.9213 H   0  0  0  0  0  0  0  0  0  0  0  0
    9.2543    5.5033    5.6155 H   0  0  0  0  0  0  0  0  0  0  0  0
    8.8984    7.2020    5.9260 H   0  0  0  0  0  0  0  0  0  0  0  0
    9.8363    5.1675    8.0308 H   0  0  0  0  0  0  0  0  0  0  0  0
    8.1684    5.7223    7.8037 H   0  0  0  0  0  0  0  0  0  0  0  0
    9.4031    6.8534    8.3627 H   0  0  0  0  0  0  0  0  0  0  0  0
   10.9713    7.6473    1.9002 H   0  0  0  0  0  0  0  0  0  0  0  0
   13.3121   10.2899    1.0251 H   0  0  0  0  0  0  0  0  0  0  0  0
   13.1610    8.6128    1.5769 H   0  0  0  0  0  0  0  0  0  0  0  0
   12.7530    9.9666    2.6533 H   0  0  0  0  0  0  0  0  0  0  0  0
   11.9899    9.6031   -0.9305 H   0  0  0  0  0  0  0  0  0  0  0  0
   10.2866    9.4802   -0.8847 H   0  0  0  0  0  0  0  0  0  0  0  0
   11.1420    8.0694   -0.4278 H   0  0  0  0  0  0  0  0  0  0  0  0
   11.3751   11.4962    0.7219 H   0  0  0  0  0  0  0  0  0  0  0  0
    8.1958   10.1851    1.7280 H   0  0  0  0  0  0  0  0  0  0  0  0
    7.3130    9.1593    0.6098 H   0  0  0  0  0  0  0  0  0  0  0  0
    8.7167    9.9377    0.0485 H   0  0  0  0  0  0  0  0  0  0  0  0
    8.1433    5.5079    0.6761 H   0  0  0  0  0  0  0  0  0  0  0  0
    6.9056    5.8898   -0.8883 H   0  0  0  0  0  0  0  0  0  0  0  0
    8.8027    7.9823   -1.4970 H   0  0  0  0  0  0  0  0  0  0  0  0
    8.4464    6.4871   -2.2633 H   0  0  0  0  0  0  0  0  0  0  0  0
    6.9773    9.1071   -2.7280 H   0  0  0  0  0  0  0  0  0  0  0  0
    6.3559    7.5749   -3.2809 H   0  0  0  0  0  0  0  0  0  0  0  0
    9.4958    9.0235   -3.2265 H   0  0  0  0  0  0  0  0  0  0  0  0
    3.9139    7.4016   -0.1510 H   0  0  0  0  0  0  0  0  0  0  0  0
    5.8997    5.9304   -2.6155 H   0  0  0  0  0  0  0  0  0  0  0  0
    3.1837    4.7166   -3.1159 H   0  0  0  0  0  0  0  0  0  0  0  0
    5.6053    4.8753   -4.9676 H   0  0  0  0  0  0  0  0  0  0  0  0
    3.9477    4.8531   -5.5781 H   0  0  0  0  0  0  0  0  0  0  0  0
    4.5408    3.4843   -4.6501 H   0  0  0  0  0  0  0  0  0  0  0  0
    4.5007    7.2649   -4.1927 H   0  0  0  0  0  0  0  0  0  0  0  0
    3.2534    7.2196   -2.9389 H   0  0  0  0  0  0  0  0  0  0  0  0
    2.8850    6.6857   -4.5641 H   0  0  0  0  0  0  0  0  0  0  0  0
    4.1342    3.0006   -1.9128 H   0  0  0  0  0  0  0  0  0  0  0  0
    5.4163    2.1005   -1.1865 H   0  0  0  0  0  0  0  0  0  0  0  0
    5.3788    2.2795   -2.9527 H   0  0  0  0  0  0  0  0  0  0  0  0
  1  2  1  0  0  0  0
  1 84  1  0  0  0  0
  1 85  1  0  0  0  0
  1 86  1  0  0  0  0
  2 87  1  0  0  0  0
  2 88  1  0  0  0  0
  3  5  1  0  0  0  0
  3  4  1  0  0  0  0
  3  2  1  0  0  0  0
  3 89  1  1  0  0  0
  4 90  1  0  0  0  0
  4 91  1  0  0  0  0
  4 92  1  0  0  0  0
  5  6  1  0  0  0  0
  5 82  1  0  0  0  0
  5 93  1  6  0  0  0
  6  7  1  0  0  0  0
  6 94  1  0  0  0  0
  7  8  2  0  0  0  0
  7  9  1  0  0  0  0
  9 10  1  0  0  0  0
  9 13  1  0  0  0  0
  9 95  1  1  0  0  0
 10 11  1  0  0  0  0
 10 96  1  0  0  0  0
 10 97  1  0  0  0  0
 11 12  1  0  0  0  0
 11 98  1  0  0  0  0
 11 99  1  0  0  0  0
 12 13  1  0  0  0  0
 12100  1  0  0  0  0
 12101  1  0  0  0  0
 13 14  1  0  0  0  0
 14 15  2  0  0  0  0
 14 16  1  0  0  0  0
 16 24  1  0  0  0  0
 16 17  1  0  0  0  0
 16102  1  1  0  0  0
 17 18  1  0  0  0  0
 17103  1  0  0  0  0
 17104  1  0  0  0  0
 18 19  1  0  0  0  0
 18 23  2  0  0  0  0
 19 20  2  0  0  0  0
 19105  1  0  0  0  0
 20 21  1  0  0  0  0
 20106  1  0  0  0  0
 21 22  2  0  0  0  0
 21107  1  0  0  0  0
 22 23  1  0  0  0  0
 22108  1  0  0  0  0
 23109  1  0  0  0  0
 24 25  1  0  0  0  0
 24 26  1  0  0  0  0
 25110  1  0  0  0  0
 25111  1  0  0  0  0
 25112  1  0  0  0  0
 26 27  2  0  0  0  0
 26 28  1  0  0  0  0
 28 36  1  0  0  0  0
 28 29  1  0  0  0  0
 28113  1  6  0  0  0
 29 30  1  0  0  0  0
 29114  1  0  0  0  0
 29115  1  0  0  0  0
 30 31  1  0  0  0  0
 30 35  2  0  0  0  0
 31 32  2  0  0  0  0
 31116  1  0  0  0  0
 32 33  1  0  0  0  0
 32117  1  0  0  0  0
 33 34  2  0  0  0  0
 33118  1  0  0  0  0
 34 35  1  0  0  0  0
 34119  1  0  0  0  0
 35120  1  0  0  0  0
 36 37  1  0  0  0  0
 36121  1  0  0  0  0
 37 38  2  0  0  0  0
 37 39  1  0  0  0  0
 39 43  1  0  0  0  0
 39 40  1  0  0  0  0
 39122  1  6  0  0  0
 40 41  1  0  0  0  0
 40 42  1  0  0  0  0
 40123  1  0  0  0  0
 41124  1  0  0  0  0
 41125  1  0  0  0  0
 41126  1  0  0  0  0
 42127  1  0  0  0  0
 42128  1  0  0  0  0
 42129  1  0  0  0  0
 43 44  1  0  0  0  0
 43 45  1  0  0  0  0
 44130  1  0  0  0  0
 44131  1  0  0  0  0
 44132  1  0  0  0  0
 45 46  2  0  0  0  0
 45 47  1  0  0  0  0
 47 48  1  0  0  0  0
 47 52  1  0  0  0  0
 47133  1  6  0  0  0
 48 49  1  0  0  0  0
 48 50  1  0  0  0  0
 48134  1  1  0  0  0
 49135  1  0  0  0  0
 49136  1  0  0  0  0
 49137  1  0  0  0  0
 50 51  1  0  0  0  0
 50138  1  0  0  0  0
 50139  1  0  0  0  0
 51140  1  0  0  0  0
 51141  1  0  0  0  0
 51142  1  0  0  0  0
 52 53  1  0  0  0  0
 53 54  2  0  0  0  0
 53 55  1  0  0  0  0
 55 60  1  0  0  0  0
 55 56  1  0  0  0  0
 55143  1  6  0  0  0
 56 57  1  0  0  0  0
 56 58  1  0  0  0  0
 56 59  1  0  0  0  0
 57144  1  0  0  0  0
 57145  1  0  0  0  0
 57146  1  0  0  0  0
 58147  1  0  0  0  0
 58148  1  0  0  0  0
 58149  1  0  0  0  0
 59150  1  0  0  0  0
 60 61  1  0  0  0  0
 60 62  1  0  0  0  0
 61151  1  0  0  0  0
 61152  1  0  0  0  0
 61153  1  0  0  0  0
 62 63  2  0  0  0  0
 62 64  1  0  0  0  0
 64 65  1  0  0  0  0
 64154  1  0  0  0  0
 65 71  1  0  0  0  0
 65 66  1  0  0  0  0
 65155  1  6  0  0  0
 66 67  1  0  0  0  0
 66156  1  0  0  0  0
 66157  1  0  0  0  0
 67 68  1  0  0  0  0
 67158  1  0  0  0  0
 67159  1  0  0  0  0
 68 69  2  0  0  0  0
 68 70  1  0  0  0  0
 70160  1  0  0  0  0
 71 72  2  0  0  0  0
 71 73  1  0  0  0  0
 73 74  1  0  0  0  0
 73161  1  0  0  0  0
 74 75  2  0  0  0  0
 74 76  1  0  0  0  0
 76 80  1  0  0  0  0
 76 77  1  0  0  0  0
 76162  1  6  0  0  0
 77 78  1  0  0  0  0
 77 79  1  0  0  0  0
 77163  1  0  0  0  0
 78164  1  0  0  0  0
 78165  1  0  0  0  0
 78166  1  0  0  0  0
 79167  1  0  0  0  0
 79168  1  0  0  0  0
 79169  1  0  0  0  0
 80 81  1  0  0  0  0
 80 82  1  0  0  0  0
 81170  1  0  0  0  0
 81171  1  0  0  0  0
 81172  1  0  0  0  0
 82 83  2  0  0  0  0
M  END
>  <Energy>
558.462

$$$$