185670
  -OEChem-03242010103D

 51 53  0     0  0  0  0  0  0999 V2000
   -0.2481    0.6279   -0.2044 O   0  0  0  0  0  0  0  0  0  0  0  0
   -4.2871   -1.9711    0.4098 O   0  0  0  0  0  0  0  0  0  0  0  0
   -5.7586    0.2406   -0.2161 O   0  0  0  0  0  0  0  0  0  0  0  0
   -4.5026    2.6256   -0.8291 O   0  0  0  0  0  0  0  0  0  0  0  0
    5.1008   -1.9846   -0.6597 O   0  0  0  0  0  0  0  0  0  0  0  0
    4.3140    2.5635    0.6178 O   0  0  0  0  0  0  0  0  0  0  0  0
    6.0758    0.5388   -0.0657 O   0  0  0  0  0  0  0  0  0  0  0  0
   -1.8996   -2.9786    0.7254 O   0  0  0  0  0  0  0  0  0  0  0  0
   -2.2424   -0.7212    0.1163 C   0  0  0  0  0  0  0  0  0  0  0  0
   -1.6123    0.4828   -0.1936 C   0  0  0  0  0  0  0  0  0  0  0  0
    0.5354   -0.4705    0.1152 C   0  0  0  0  0  0  0  0  0  0  0  0
    1.9874   -0.2060    0.0678 C   0  0  0  0  0  0  0  0  0  0  0  0
   -3.6363   -0.8110    0.1110 C   0  0  0  0  0  0  0  0  0  0  0  0
   -1.4141   -1.8909    0.4465 C   0  0  0  0  0  0  0  0  0  0  0  0
    0.0477   -1.6826    0.4241 C   0  0  0  0  0  0  0  0  0  0  0  0
   -4.3964    0.3152   -0.2070 C   0  0  0  0  0  0  0  0  0  0  0  0
   -2.3748    1.6071   -0.5115 C   0  0  0  0  0  0  0  0  0  0  0  0
   -3.7673    1.5216   -0.5176 C   0  0  0  0  0  0  0  0  0  0  0  0
    2.4792    1.0670    0.3674 C   0  0  0  0  0  0  0  0  0  0  0  0
    2.8762   -1.2274   -0.2769 C   0  0  0  0  0  0  0  0  0  0  0  0
    4.2477   -0.9777   -0.3216 C   0  0  0  0  0  0  0  0  0  0  0  0
    3.8508    1.3167    0.3227 C   0  0  0  0  0  0  0  0  0  0  0  0
    4.7350    0.2945   -0.0218 C   0  0  0  0  0  0  0  0  0  0  0  0
   -4.6219   -2.1914    1.7781 C   0  0  0  0  0  0  0  0  0  0  0  0
   -6.3775   -0.1243   -1.4471 C   0  0  0  0  0  0  0  0  0  0  0  0
   -4.8777    3.4798    0.2496 C   0  0  0  0  0  0  0  0  0  0  0  0
    4.5209   -3.2546   -0.9513 C   0  0  0  0  0  0  0  0  0  0  0  0
    4.6335    2.8300    1.9819 C   0  0  0  0  0  0  0  0  0  0  0  0
    6.6123    0.9809   -1.3104 C   0  0  0  0  0  0  0  0  0  0  0  0
    0.6596   -2.5368    0.6892 H   0  0  0  0  0  0  0  0  0  0  0  0
   -1.8860    2.5473   -0.7544 H   0  0  0  0  0  0  0  0  0  0  0  0
    1.8071    1.8759    0.6456 H   0  0  0  0  0  0  0  0  0  0  0  0
    2.4633   -2.1957   -0.5341 H   0  0  0  0  0  0  0  0  0  0  0  0
   -4.9184   -3.2375    1.8941 H   0  0  0  0  0  0  0  0  0  0  0  0
   -5.4664   -1.5560    2.0626 H   0  0  0  0  0  0  0  0  0  0  0  0
   -3.7717   -1.9924    2.4385 H   0  0  0  0  0  0  0  0  0  0  0  0
   -6.1485    0.6096   -2.2262 H   0  0  0  0  0  0  0  0  0  0  0  0
   -7.4599   -0.1437   -1.2934 H   0  0  0  0  0  0  0  0  0  0  0  0
   -6.0517   -1.1205   -1.7626 H   0  0  0  0  0  0  0  0  0  0  0  0
   -3.9893    3.8893    0.7409 H   0  0  0  0  0  0  0  0  0  0  0  0
   -5.4923    2.9377    0.9752 H   0  0  0  0  0  0  0  0  0  0  0  0
   -5.4653    4.3073   -0.1572 H   0  0  0  0  0  0  0  0  0  0  0  0
    3.8788   -3.2119   -1.8377 H   0  0  0  0  0  0  0  0  0  0  0  0
    4.0071   -3.6755   -0.0801 H   0  0  0  0  0  0  0  0  0  0  0  0
    5.3443   -3.9357   -1.1911 H   0  0  0  0  0  0  0  0  0  0  0  0
    5.4222    2.1565    2.3319 H   0  0  0  0  0  0  0  0  0  0  0  0
    3.7439    2.7265    2.6113 H   0  0  0  0  0  0  0  0  0  0  0  0
    4.9953    3.8593    2.0543 H   0  0  0  0  0  0  0  0  0  0  0  0
    6.1595    1.9316   -1.6094 H   0  0  0  0  0  0  0  0  0  0  0  0
    6.4523    0.2279   -2.0886 H   0  0  0  0  0  0  0  0  0  0  0  0
    7.6881    1.1308   -1.1856 H   0  0  0  0  0  0  0  0  0  0  0  0
  1 10  1  0  0  0  0
  1 11  1  0  0  0  0
  2 13  1  0  0  0  0
  2 24  1  0  0  0  0
  3 16  1  0  0  0  0
  3 25  1  0  0  0  0
  4 18  1  0  0  0  0
  4 26  1  0  0  0  0
  5 21  1  0  0  0  0
  5 27  1  0  0  0  0
  6 22  1  0  0  0  0
  6 28  1  0  0  0  0
  7 23  1  0  0  0  0
  7 29  1  0  0  0  0
  8 14  2  0  0  0  0
  9 10  1  0  0  0  0
  9 13  2  0  0  0  0
  9 14  1  0  0  0  0
 10 17  2  0  0  0  0
 11 12  1  0  0  0  0
 11 15  2  0  0  0  0
 12 19  2  0  0  0  0
 12 20  1  0  0  0  0
 13 16  1  0  0  0  0
 14 15  1  0  0  0  0
 15 30  1  0  0  0  0
 16 18  2  0  0  0  0
 17 18  1  0  0  0  0
 17 31  1  0  0  0  0
 19 22  1  0  0  0  0
 19 32  1  0  0  0  0
 20 21  2  0  0  0  0
 20 33  1  0  0  0  0
 21 23  1  0  0  0  0
 22 23  2  0  0  0  0
 24 34  1  0  0  0  0
 24 35  1  0  0  0  0
 24 36  1  0  0  0  0
 25 37  1  0  0  0  0
 25 38  1  0  0  0  0
 25 39  1  0  0  0  0
 26 40  1  0  0  0  0
 26 41  1  0  0  0  0
 26 42  1  0  0  0  0
 27 43  1  0  0  0  0
 27 44  1  0  0  0  0
 27 45  1  0  0  0  0
 28 46  1  0  0  0  0
 28 47  1  0  0  0  0
 28 48  1  0  0  0  0
 29 49  1  0  0  0  0
 29 50  1  0  0  0  0
 29 51  1  0  0  0  0
M  END
> <PUBCHEM_COMPOUND_CID>
185670

> <PUBCHEM_CONFORMER_RMSD>
0.8

> <PUBCHEM_CONFORMER_DIVERSEORDER>
3
4
2
8
7
6
1
5
9

> <PUBCHEM_MMFF94_PARTIAL_CHARGES>
33
1 -0.16
10 0.08
11 0.05
12 0.03
13 0.08
14 0.47
15 -0.14
16 0.08
17 -0.15
18 0.08
19 -0.15
2 -0.36
20 -0.15
21 0.08
22 0.08
23 0.08
24 0.28
25 0.28
26 0.28
27 0.28
28 0.28
29 0.28
3 -0.36
30 0.15
31 0.15
32 0.15
33 0.15
4 -0.36
5 -0.36
6 -0.36
7 -0.36
8 -0.57
9 0.09

> <PUBCHEM_EFFECTIVE_ROTOR_COUNT>
7

> <PUBCHEM_PHARMACOPHORE_FEATURES>
11
1 1 acceptor
1 2 acceptor
1 3 acceptor
1 4 acceptor
1 5 acceptor
1 6 acceptor
1 7 acceptor
1 8 acceptor
6 1 9 10 11 14 15 rings
6 12 19 20 21 22 23 rings
6 9 10 13 16 17 18 rings

> <PUBCHEM_HEAVY_ATOM_COUNT>
29

> <PUBCHEM_ATOM_DEF_STEREO_COUNT>
0

> <PUBCHEM_ATOM_UDEF_STEREO_COUNT>
0

> <PUBCHEM_BOND_DEF_STEREO_COUNT>
0

> <PUBCHEM_BOND_UDEF_STEREO_COUNT>
0

> <PUBCHEM_ISOTOPIC_ATOM_COUNT>
0

> <PUBCHEM_COMPONENT_COUNT>
1

> <PUBCHEM_CACTVS_TAUTO_COUNT>
1

> <PUBCHEM_CONFORMER_ID>
0002D54600000003

> <PUBCHEM_MMFF94_ENERGY>
150.7711

> <PUBCHEM_FEATURE_SELFOVERLAP>
55.888

> <PUBCHEM_SHAPE_FINGERPRINT>
10319926 262 18262503880295704184
10411042 1 17757561029325864099
11719270 70 18342454821561407790
12107183 9 17899404299664957442
12236239 1 14261362357688239754
12390115 104 18339652144219168601
12403259 415 18342176713057919824
12730499 353 18341900740340360610
13533116 47 18271806796306620078
13583140 156 18272936063510040454
13668630 136 16630530652181477252
14790565 3 17832428592425622037
15082195 135 18187933923426176932
15183329 4 18410577254138729466
15196674 1 18408887304513643230
17349148 13 15554733257118701134
17844677 252 18272092681813907973
18608769 82 18262808495986921714
21033648 144 17916022541629171264
21033648 29 18342166791372327416
21065198 57 18411700984844254174
21236236 1 18410575051131769013
21279426 13 18267586805911639846
21792961 116 18270976687246115478
21859007 373 17751616794118013284
221357 26 18343579629417337884
23559900 14 18410012169538861932
23569914 152 16837709176162546988
2747138 104 18043260247809794107
3004659 81 18262241011381615342
34797466 226 17775569762039428069
3545911 37 18410857685385568252
4073 2 18187372034150348674
4214541 1 18408886221991857092
495365 180 17845924226257590602
5104073 3 18335417950245761896
5283173 99 18410292501627296496
59755656 215 18411984667940537908
9709674 26 18410014368320024526
9995097 60 18341612646476071058

> <PUBCHEM_SHAPE_MULTIPOLES>
549.85
16.3
3.47
1.15
4.04
0.45
0.26
4.17
-3.02
-0.17
0.74
0.07
0.11
2.91

> <PUBCHEM_SHAPE_SELFOVERLAP>
1190.218

> <PUBCHEM_SHAPE_VOLUME>
303.3

> <PUBCHEM_COORDINATE_TYPE>
2
5
10

$$$$