90655517
  -OEChem-03242010103D

 49 51  0     0  0  0  0  0  0999 V2000
    5.8575   -2.5152    0.4251 O   0  0  0  0  0  0  0  0  0  0  0  0
    2.4940    2.9521   -0.2597 O   0  0  0  0  0  0  0  0  0  0  0  0
    6.9494    0.0206    0.1501 O   0  0  0  0  0  0  0  0  0  0  0  0
   -7.6171   -1.1133    0.0792 N   0  0  0  0  0  0  0  0  0  0  0  0
    1.3429   -0.4637    0.1167 C   0  0  0  0  0  0  0  0  0  0  0  0
    2.8409   -0.5078    0.1459 C   0  0  0  0  0  0  0  0  0  0  0  0
    3.4076    0.7613    0.0085 C   0  0  0  0  0  0  0  0  0  0  0  0
    1.0521    1.0052   -0.0579 C   0  0  0  0  0  0  0  0  0  0  0  0
    2.3405    1.7560   -0.1240 C   0  0  0  0  0  0  0  0  0  0  0  0
    3.6558   -1.6181    0.2869 C   0  0  0  0  0  0  0  0  0  0  0  0
    4.7736    0.9732    0.0058 C   0  0  0  0  0  0  0  0  0  0  0  0
    5.0418   -1.4304    0.2872 C   0  0  0  0  0  0  0  0  0  0  0  0
    5.5956   -0.1454    0.1477 C   0  0  0  0  0  0  0  0  0  0  0  0
   -0.1384    1.6007   -0.1457 C   0  0  0  0  0  0  0  0  0  0  0  0
   -1.3958    0.8858   -0.0834 C   0  0  0  0  0  0  0  0  0  0  0  0
   -2.5871    1.4981   -0.1731 C   0  0  0  0  0  0  0  0  0  0  0  0
   -3.8932    0.8200   -0.1076 C   0  0  0  0  0  0  0  0  0  0  0  0
   -6.3666   -0.4642    0.0166 C   0  0  0  0  0  0  0  0  0  0  0  0
   -5.0417    1.5471    0.2058 C   0  0  0  0  0  0  0  0  0  0  0  0
   -3.9816   -0.5493   -0.3586 C   0  0  0  0  0  0  0  0  0  0  0  0
   -6.2784    0.9051    0.2677 C   0  0  0  0  0  0  0  0  0  0  0  0
   -5.2182   -1.1914   -0.2966 C   0  0  0  0  0  0  0  0  0  0  0  0
    6.2635   -3.1744   -0.7718 C   0  0  0  0  0  0  0  0  0  0  0  0
    7.4374    1.3522    0.0042 C   0  0  0  0  0  0  0  0  0  0  0  0
   -8.8152   -0.3683    0.4113 C   0  0  0  0  0  0  0  0  0  0  0  0
   -7.7195   -2.5357   -0.1802 C   0  0  0  0  0  0  0  0  0  0  0  0
    0.9657   -1.0468   -0.7293 H   0  0  0  0  0  0  0  0  0  0  0  0
    0.9373   -0.8397    1.0614 H   0  0  0  0  0  0  0  0  0  0  0  0
    3.2285   -2.6099    0.3952 H   0  0  0  0  0  0  0  0  0  0  0  0
    5.1280    1.9899   -0.1059 H   0  0  0  0  0  0  0  0  0  0  0  0
   -0.1918    2.6794   -0.2723 H   0  0  0  0  0  0  0  0  0  0  0  0
   -1.3315   -0.1873    0.0638 H   0  0  0  0  0  0  0  0  0  0  0  0
   -2.6282    2.5791   -0.2930 H   0  0  0  0  0  0  0  0  0  0  0  0
   -4.9907    2.6147    0.4056 H   0  0  0  0  0  0  0  0  0  0  0  0
   -3.1187   -1.1515   -0.6273 H   0  0  0  0  0  0  0  0  0  0  0  0
   -7.1418    1.5145    0.5154 H   0  0  0  0  0  0  0  0  0  0  0  0
   -5.2356   -2.2568   -0.5045 H   0  0  0  0  0  0  0  0  0  0  0  0
    6.9152   -4.0090   -0.4993 H   0  0  0  0  0  0  0  0  0  0  0  0
    6.8228   -2.4908   -1.4185 H   0  0  0  0  0  0  0  0  0  0  0  0
    5.3937   -3.5697   -1.3060 H   0  0  0  0  0  0  0  0  0  0  0  0
    8.5309    1.2989    0.0276 H   0  0  0  0  0  0  0  0  0  0  0  0
    7.1328    1.9883    0.8422 H   0  0  0  0  0  0  0  0  0  0  0  0
    7.1614    1.7796   -0.9659 H   0  0  0  0  0  0  0  0  0  0  0  0
   -8.7412    0.0757    1.4103 H   0  0  0  0  0  0  0  0  0  0  0  0
   -9.0099    0.4178   -0.3268 H   0  0  0  0  0  0  0  0  0  0  0  0
   -9.7022   -1.0116    0.4217 H   0  0  0  0  0  0  0  0  0  0  0  0
   -7.3916   -2.7773   -1.1974 H   0  0  0  0  0  0  0  0  0  0  0  0
   -7.1321   -3.1131    0.5424 H   0  0  0  0  0  0  0  0  0  0  0  0
   -8.7530   -2.8895   -0.0947 H   0  0  0  0  0  0  0  0  0  0  0  0
  1 12  1  0  0  0  0
  1 23  1  0  0  0  0
  2  9  2  0  0  0  0
  3 13  1  0  0  0  0
  3 24  1  0  0  0  0
  4 18  1  0  0  0  0
  4 25  1  0  0  0  0
  4 26  1  0  0  0  0
  5  6  1  0  0  0  0
  5  8  1  0  0  0  0
  5 27  1  0  0  0  0
  5 28  1  0  0  0  0
  6  7  1  0  0  0  0
  6 10  2  0  0  0  0
  7  9  1  0  0  0  0
  7 11  2  0  0  0  0
  8  9  1  0  0  0  0
  8 14  2  0  0  0  0
 10 12  1  0  0  0  0
 10 29  1  0  0  0  0
 11 13  1  0  0  0  0
 11 30  1  0  0  0  0
 12 13  2  0  0  0  0
 14 15  1  0  0  0  0
 14 31  1  0  0  0  0
 15 16  2  0  0  0  0
 15 32  1  0  0  0  0
 16 17  1  0  0  0  0
 16 33  1  0  0  0  0
 17 19  2  0  0  0  0
 17 20  1  0  0  0  0
 18 21  2  0  0  0  0
 18 22  1  0  0  0  0
 19 21  1  0  0  0  0
 19 34  1  0  0  0  0
 20 22  2  0  0  0  0
 20 35  1  0  0  0  0
 21 36  1  0  0  0  0
 22 37  1  0  0  0  0
 23 38  1  0  0  0  0
 23 39  1  0  0  0  0
 23 40  1  0  0  0  0
 24 41  1  0  0  0  0
 24 42  1  0  0  0  0
 24 43  1  0  0  0  0
 25 44  1  0  0  0  0
 25 45  1  0  0  0  0
 25 46  1  0  0  0  0
 26 47  1  0  0  0  0
 26 48  1  0  0  0  0
 26 49  1  0  0  0  0
M  END
> <PUBCHEM_COMPOUND_CID>
90655517

> <PUBCHEM_CONFORMER_RMSD>
0.8

> <PUBCHEM_CONFORMER_DIVERSEORDER>
1
2
3

> <PUBCHEM_MMFF94_PARTIAL_CHARGES>
35
1 -0.36
10 -0.15
11 -0.15
12 0.08
13 0.08
14 -0.15
15 -0.15
16 -0.18
17 0.03
18 0.1
19 -0.15
2 -0.57
20 -0.15
21 -0.15
22 -0.15
23 0.28
24 0.28
25 0.37
26 0.37
29 0.15
3 -0.36
30 0.15
31 0.15
32 0.15
33 0.15
34 0.15
35 0.15
36 0.15
37 0.15
4 -0.84
5 0.28
6 -0.14
7 0.09
8 -0.12
9 0.47

> <PUBCHEM_EFFECTIVE_ROTOR_COUNT>
5.2

> <PUBCHEM_PHARMACOPHORE_FEATURES>
7
1 1 acceptor
1 2 acceptor
1 3 acceptor
1 4 cation
5 5 6 7 8 9 rings
6 17 18 19 20 21 22 rings
6 6 7 10 11 12 13 rings

> <PUBCHEM_HEAVY_ATOM_COUNT>
26

> <PUBCHEM_ATOM_DEF_STEREO_COUNT>
0

> <PUBCHEM_ATOM_UDEF_STEREO_COUNT>
0

> <PUBCHEM_BOND_DEF_STEREO_COUNT>
2

> <PUBCHEM_BOND_UDEF_STEREO_COUNT>
0

> <PUBCHEM_ISOTOPIC_ATOM_COUNT>
0

> <PUBCHEM_COMPONENT_COUNT>
1

> <PUBCHEM_CACTVS_TAUTO_COUNT>
1

> <PUBCHEM_CONFORMER_ID>
05674B1D00000001

> <PUBCHEM_MMFF94_ENERGY>
105.7103

> <PUBCHEM_FEATURE_SELFOVERLAP>
35.609

> <PUBCHEM_SHAPE_FINGERPRINT>
10299344 5 18412547626304610441
10391435 84 18187361090557718075
10411042 1 18193838146965591042
10595046 47 18408886213418130160
10625338 86 15051731975672127602
10740516 88 17558564500139223374
11135609 127 11458718235474248486
11315181 36 18342177770210809257
11524674 6 16845572037563769199
11578080 2 17058067047539839986
11719270 70 18131631153755584702
11963148 33 18264764364080912214
11991303 11 14779558910857103899
12166972 35 18342739624003604113
12236239 1 18272089361830698512
12516196 113 18413106156220161384
13533116 47 18410012182418989329
1361 4 18410011035351738234
13668630 136 18113617885476174067
13685833 64 18408886231003713417
13885169 127 18335419033585595005
13968360 50 13912313573408670032
14178184 131 18128817637620648743
14251764 18 18343865528595095597
14556957 393 14851892400693738415
14849402 71 18271526506720668072
15183329 4 17821444660178826363
15352257 5 18409167714586507771
15716309 27 18343863312608255175
15728490 51 18341047501699409510
16990366 60 17910963435750340270
18335252 98 18411699885833766778
20028762 73 18341611486345141614
21049683 271 18410294752792397036
21130935 74 18343021047503594762
21150785 3 16008746926911791741
21197605 99 18413671305561224910
21267235 1 18411703175072093732
22149856 69 18200599103266218368
23522609 53 18120124764576839493
23559900 14 18409724084418254513
23569943 247 17976260140793043010
2838139 119 8934999265774168035
3004659 81 18186798102129042657
33532 11 18410009931766305947
3663271 9 18202285779583075017
4073 2 18042126620824061155
4325135 7 18335421287366960364
439807 62 18412545427545151241
465052 167 18343584023432340388
5104073 3 18059853939477720193
559249 180 18411417281618345373
9831232 110 18055921996372607430
9962374 69 18338508768184824413
999808 66 18113910381708452907

> <PUBCHEM_SHAPE_MULTIPOLES>
512.48
25.99
2.71
0.67
24.77
1.18
-0.01
12.68
1.24
-2.57
-0.31
-0.06
0.09
-0.09

> <PUBCHEM_SHAPE_SELFOVERLAP>
1103.639

> <PUBCHEM_SHAPE_VOLUME>
286.3

> <PUBCHEM_COORDINATE_TYPE>
2
5
10

$$$$