29
 OpenBabel03292022263D

110117  0  0  1  0  0  0  0  0999 V2000
   -3.6943  -38.5312  -16.2717 C   0  0  0  0  0  0  0  0  0  0  0  0
   -4.1704  -37.1931  -16.2174 O   0  0  0  0  0  0  0  0  0  0  0  0
   -3.4385  -36.3680  -15.4107 C   0  0  0  0  0  0  0  0  0  0  0  0
   -2.0687  -36.4542  -15.2170 C   0  0  0  0  0  0  0  0  0  0  0  0
   -1.4093  -35.5432  -14.3818 C   0  0  0  0  0  0  0  0  0  0  0  0
   -2.1126  -34.5307  -13.7035 C   0  0  0  0  0  0  0  0  0  0  0  0
   -3.4949  -34.4826  -13.8617 C   0  0  0  0  0  0  0  0  0  0  0  0
   -4.1177  -35.3499  -14.7541 C   0  0  0  0  0  0  0  0  0  0  0  0
   -5.4609  -35.1293  -14.9015 O   0  0  0  0  0  0  0  0  0  0  0  0
   -5.7059  -33.8924  -14.1879 C   0  0  1  0  0  0  0  0  0  0  0  0
   -7.1191  -33.9958  -13.6093 C   0  0  0  0  0  0  0  0  0  0  0  0
   -7.2348  -34.9671  -12.4248 C   0  0  1  0  0  0  0  0  0  0  0  0
   -7.3970  -36.3233  -12.8914 O   0  0  0  0  0  0  0  0  0  0  0  0
   -8.6440  -36.6032  -13.3722 C   0  0  0  0  0  0  0  0  0  0  0  0
   -9.6087  -35.8492  -13.2859 O   0  0  0  0  0  0  0  0  0  0  0  0
   -8.7048  -37.8875  -14.1721 C   0  0  0  0  0  0  0  0  0  0  0  0
   -7.9441  -39.0765  -13.5986 C   0  0  0  0  0  0  0  0  0  0  0  0
   -8.3904  -39.5124  -12.1991 C   0  0  0  0  0  0  0  0  0  0  0  0
   -9.8571  -39.9414  -12.0639 C   0  0  0  0  0  0  0  0  0  0  0  0
  -10.2177  -41.1746  -12.9014 C   0  0  0  0  0  0  0  0  0  0  0  0
  -11.6355  -41.7004  -12.6475 C   0  0  0  0  0  0  0  0  0  0  0  0
  -12.7510  -40.7075  -12.9940 C   0  0  0  0  0  0  0  0  0  0  0  0
  -14.1629  -41.2864  -12.7923 C   0  0  0  0  0  0  0  0  0  0  0  0
  -14.4830  -41.7419  -11.3818 C   0  0  0  0  0  0  0  0  0  0  0  0
  -15.2536  -42.6416  -11.1352 O   0  0  0  0  0  0  0  0  0  0  0  0
  -13.7841  -41.0276  -10.4590 O   0  0  0  0  0  0  0  0  0  0  0  0
  -13.7149  -41.6271   -9.1528 C   0  0  1  0  0  0  0  0  0  0  0  0
  -12.6252  -42.6716   -9.1782 C   0  0  0  0  0  0  0  0  0  0  0  0
  -11.5775  -42.7099   -8.3211 C   0  0  0  0  0  0  0  0  0  0  0  0
  -11.5377  -42.0036   -6.9500 C   0  0  1  0  0  0  0  0  0  0  0  0
  -11.1768  -43.1241   -5.9211 C   0  0  0  0  0  0  0  0  0  0  0  0
   -9.8500  -43.7187   -6.2770 N   0  0  0  0  0  0  0  0  0  0  0  0
   -9.7488  -45.1559   -6.1078 C   0  0  0  0  0  0  0  0  0  0  0  0
   -8.7032  -42.9905   -5.7282 C   0  0  0  0  0  0  0  0  0  0  0  0
   -8.3328  -41.7548   -6.5711 C   0  0  0  0  0  0  0  0  0  0  0  0
   -9.3133  -40.6209   -6.4459 C   0  0  0  0  0  0  0  0  0  0  0  0
   -8.8443  -39.3533   -6.0167 C   0  0  0  0  0  0  0  0  0  0  0  0
   -9.7186  -38.3119   -5.6491 C   0  0  0  0  0  0  0  0  0  0  0  0
  -11.0822  -38.5414   -5.6372 C   0  0  0  0  0  0  0  0  0  0  0  0
  -12.0712  -37.6801   -5.2692 O   0  0  0  0  0  0  0  0  0  0  0  0
  -11.7138  -36.3504   -4.9392 C   0  0  0  0  0  0  0  0  0  0  0  0
  -11.5042  -39.7952   -6.0583 C   0  0  0  0  0  0  0  0  0  0  0  0
  -10.6816  -40.7963   -6.5979 C   0  0  0  0  0  0  0  0  0  0  0  0
  -12.8102  -40.1919   -5.8878 O   0  0  0  0  0  0  0  0  0  0  0  0
  -12.9139  -41.2566   -6.8290 C   0  0  1  0  0  0  0  0  0  0  0  0
  -13.2872  -40.5670   -8.1735 C   0  0  0  0  0  0  0  0  0  0  0  0
   -6.0454  -34.8681  -11.5033 C   0  0  0  0  0  0  0  0  0  0  0  0
   -4.8864  -34.2496  -11.8015 C   0  0  0  0  0  0  0  0  0  0  0  0
   -4.5428  -33.6548  -13.1657 C   0  0  1  0  0  0  0  0  0  0  0  0
   -4.2032  -32.1341  -13.0743 C   0  0  0  0  0  0  0  0  0  0  0  0
   -2.9855  -31.7479  -12.3098 N   0  0  0  0  0  0  0  0  0  0  0  0
   -2.9870  -30.2987  -12.0617 C   0  0  0  0  0  0  0  0  0  0  0  0
   -1.7538  -32.1005  -13.0452 C   0  0  0  0  0  0  0  0  0  0  0  0
   -1.3452  -33.5617  -12.8493 C   0  0  0  0  0  0  0  0  0  0  0  0
   -4.4831  -39.1505  -16.7104 H   0  0  0  0  0  0  0  0  0  0  0  0
   -3.4791  -38.9262  -15.2716 H   0  0  0  0  0  0  0  0  0  0  0  0
   -2.8146  -38.6035  -16.9181 H   0  0  0  0  0  0  0  0  0  0  0  0
   -1.4715  -37.2146  -15.7231 H   0  0  0  0  0  0  0  0  0  0  0  0
   -0.3298  -35.6292  -14.2685 H   0  0  0  0  0  0  0  0  0  0  0  0
   -5.7162  -33.0947  -14.9448 H   0  0  0  0  0  0  0  0  0  0  0  0
   -7.4592  -33.0046  -13.2927 H   0  0  0  0  0  0  0  0  0  0  0  0
   -7.7824  -34.3294  -14.4171 H   0  0  0  0  0  0  0  0  0  0  0  0
   -8.1134  -34.6936  -11.8259 H   0  0  0  0  0  0  0  0  0  0  0  0
   -8.3234  -37.6588  -15.1741 H   0  0  0  0  0  0  0  0  0  0  0  0
   -9.7594  -38.1542  -14.2939 H   0  0  0  0  0  0  0  0  0  0  0  0
   -6.8736  -38.8396  -13.5664 H   0  0  0  0  0  0  0  0  0  0  0  0
   -8.0426  -39.9205  -14.2918 H   0  0  0  0  0  0  0  0  0  0  0  0
   -8.2047  -38.6918  -11.4957 H   0  0  0  0  0  0  0  0  0  0  0  0
   -7.7470  -40.3405  -11.8760 H   0  0  0  0  0  0  0  0  0  0  0  0
  -10.5085  -39.1006  -12.3229 H   0  0  0  0  0  0  0  0  0  0  0  0
  -10.0460  -40.1643  -11.0054 H   0  0  0  0  0  0  0  0  0  0  0  0
   -9.5128  -41.9812  -12.6593 H   0  0  0  0  0  0  0  0  0  0  0  0
  -10.1029  -40.9595  -13.9685 H   0  0  0  0  0  0  0  0  0  0  0  0
  -11.6983  -41.9912  -11.5979 H   0  0  0  0  0  0  0  0  0  0  0  0
  -11.7770  -42.6197  -13.2303 H   0  0  0  0  0  0  0  0  0  0  0  0
  -12.6494  -40.4119  -14.0445 H   0  0  0  0  0  0  0  0  0  0  0  0
  -12.6508  -39.7969  -12.3960 H   0  0  0  0  0  0  0  0  0  0  0  0
  -14.2811  -42.1563  -13.4461 H   0  0  0  0  0  0  0  0  0  0  0  0
  -14.9100  -40.5411  -13.0818 H   0  0  0  0  0  0  0  0  0  0  0  0
  -14.6865  -42.0335   -8.8532 H   0  0  0  0  0  0  0  0  0  0  0  0
  -12.6924  -43.4126   -9.9717 H   0  0  0  0  0  0  0  0  0  0  0  0
  -10.8516  -43.4968   -8.4997 H   0  0  0  0  0  0  0  0  0  0  0  0
  -11.9479  -43.9049   -5.9766 H   0  0  0  0  0  0  0  0  0  0  0  0
  -11.1812  -42.7664   -4.8837 H   0  0  0  0  0  0  0  0  0  0  0  0
  -10.5368  -45.6653   -6.6731 H   0  0  0  0  0  0  0  0  0  0  0  0
   -9.7934  -45.4645   -5.0614 H   0  0  0  0  0  0  0  0  0  0  0  0
   -8.8049  -45.5170   -6.5391 H   0  0  0  0  0  0  0  0  0  0  0  0
   -7.8152  -43.6377   -5.7396 H   0  0  0  0  0  0  0  0  0  0  0  0
   -8.8670  -42.7281   -4.6746 H   0  0  0  0  0  0  0  0  0  0  0  0
   -8.1972  -42.0169   -7.6259 H   0  0  0  0  0  0  0  0  0  0  0  0
   -7.3505  -41.4149   -6.2120 H   0  0  0  0  0  0  0  0  0  0  0  0
   -7.7743  -39.1775   -5.9137 H   0  0  0  0  0  0  0  0  0  0  0  0
   -9.2988  -37.3667   -5.3228 H   0  0  0  0  0  0  0  0  0  0  0  0
  -12.6379  -35.7637   -4.8955 H   0  0  0  0  0  0  0  0  0  0  0  0
  -11.0723  -35.8921   -5.6980 H   0  0  0  0  0  0  0  0  0  0  0  0
  -11.2477  -36.3201   -3.9508 H   0  0  0  0  0  0  0  0  0  0  0  0
  -13.7187  -41.9279   -6.5069 H   0  0  0  0  0  0  0  0  0  0  0  0
  -12.4197  -40.0215   -8.5891 H   0  0  0  0  0  0  0  0  0  0  0  0
  -14.0406  -39.7824   -8.0495 H   0  0  0  0  0  0  0  0  0  0  0  0
   -6.1794  -35.2833  -10.5068 H   0  0  0  0  0  0  0  0  0  0  0  0
   -4.1187  -34.1716  -11.0333 H   0  0  0  0  0  0  0  0  0  0  0  0
   -5.0669  -31.6442  -12.6026 H   0  0  0  0  0  0  0  0  0  0  0  0
   -4.1312  -31.7084  -14.0847 H   0  0  0  0  0  0  0  0  0  0  0  0
   -3.8708  -30.0054  -11.4869 H   0  0  0  0  0  0  0  0  0  0  0  0
   -2.9623  -29.7196  -12.9909 H   0  0  0  0  0  0  0  0  0  0  0  0
   -2.1197  -30.0131  -11.4557 H   0  0  0  0  0  0  0  0  0  0  0  0
   -0.9183  -31.5016  -12.6551 H   0  0  0  0  0  0  0  0  0  0  0  0
   -1.8310  -31.8448  -14.1112 H   0  0  0  0  0  0  0  0  0  0  0  0
   -1.4058  -33.8557  -11.7950 H   0  0  0  0  0  0  0  0  0  0  0  0
   -0.2819  -33.6263  -13.1223 H   0  0  0  0  0  0  0  0  0  0  0  0
  1  2  1  0  0  0  0
  1 55  1  0  0  0  0
  1 56  1  0  0  0  0
  1 57  1  0  0  0  0
  2  3  1  0  0  0  0
  3  4  1  0  0  0  0
  3  8  2  0  0  0  0
  4  5  2  0  0  0  0
  4 58  1  0  0  0  0
  5  6  1  0  0  0  0
  5 59  1  0  0  0  0
  6  7  2  0  0  0  0
  6 54  1  0  0  0  0
  7  8  1  0  0  0  0
  7 49  1  0  0  0  0
  8  9  1  0  0  0  0
  9 10  1  0  0  0  0
 10 11  1  0  0  0  0
 10 49  1  0  0  0  0
 10 60  1  6  0  0  0
 11 12  1  0  0  0  0
 11 61  1  0  0  0  0
 11 62  1  0  0  0  0
 12 13  1  0  0  0  0
 12 47  1  0  0  0  0
 12 63  1  1  0  0  0
 13 14  1  0  0  0  0
 14 15  2  0  0  0  0
 14 16  1  0  0  0  0
 16 17  1  0  0  0  0
 16 64  1  0  0  0  0
 16 65  1  0  0  0  0
 17 18  1  0  0  0  0
 17 66  1  0  0  0  0
 17 67  1  0  0  0  0
 18 19  1  0  0  0  0
 18 68  1  0  0  0  0
 18 69  1  0  0  0  0
 19 20  1  0  0  0  0
 19 70  1  0  0  0  0
 19 71  1  0  0  0  0
 20 21  1  0  0  0  0
 20 72  1  0  0  0  0
 20 73  1  0  0  0  0
 21 22  1  0  0  0  0
 21 74  1  0  0  0  0
 21 75  1  0  0  0  0
 22 23  1  0  0  0  0
 22 76  1  0  0  0  0
 22 77  1  0  0  0  0
 23 24  1  0  0  0  0
 23 78  1  0  0  0  0
 23 79  1  0  0  0  0
 24 25  2  0  0  0  0
 24 26  1  0  0  0  0
 26 27  1  0  0  0  0
 27 28  1  0  0  0  0
 27 46  1  0  0  0  0
 27 80  1  1  0  0  0
 28 29  2  0  0  0  0
 28 81  1  0  0  0  0
 29 82  1  0  0  0  0
 30 29  1  6  0  0  0
 30 31  1  0  0  0  0
 30 43  1  0  0  0  0
 30 45  1  0  0  0  0
 31 32  1  0  0  0  0
 31 83  1  0  0  0  0
 31 84  1  0  0  0  0
 32 33  1  0  0  0  0
 32 34  1  0  0  0  0
 33 85  1  0  0  0  0
 33 86  1  0  0  0  0
 33 87  1  0  0  0  0
 34 35  1  0  0  0  0
 34 88  1  0  0  0  0
 34 89  1  0  0  0  0
 35 36  1  0  0  0  0
 35 90  1  0  0  0  0
 35 91  1  0  0  0  0
 36 37  1  0  0  0  0
 36 43  2  0  0  0  0
 37 38  2  0  0  0  0
 37 92  1  0  0  0  0
 38 39  1  0  0  0  0
 38 93  1  0  0  0  0
 39 40  1  0  0  0  0
 39 42  2  0  0  0  0
 40 41  1  0  0  0  0
 41 94  1  0  0  0  0
 41 95  1  0  0  0  0
 41 96  1  0  0  0  0
 42 43  1  0  0  0  0
 42 44  1  0  0  0  0
 44 45  1  0  0  0  0
 45 46  1  0  0  0  0
 45 97  1  1  0  0  0
 46 98  1  0  0  0  0
 46 99  1  0  0  0  0
 47 48  2  0  0  0  0
 47100  1  0  0  0  0
 48101  1  0  0  0  0
 49 48  1  1  0  0  0
 49 50  1  0  0  0  0
 50 51  1  0  0  0  0
 50102  1  0  0  0  0
 50103  1  0  0  0  0
 51 52  1  0  0  0  0
 51 53  1  0  0  0  0
 52104  1  0  0  0  0
 52105  1  0  0  0  0
 52106  1  0  0  0  0
 53 54  1  0  0  0  0
 53107  1  0  0  0  0
 53108  1  0  0  0  0
 54109  1  0  0  0  0
 54110  1  0  0  0  0
M  END
>  <Energy>
224.853

$$$$