11199480
  -OEChem-03242010103D

 59 60  0     0  0  0  0  0  0999 V2000
    4.9668    0.4200    0.0835 O   0  0  0  0  0  0  0  0  0  0  0  0
   -6.0339    2.0675   -0.0276 O   0  0  0  0  0  0  0  0  0  0  0  0
   -5.3668   -2.6590    0.0039 O   0  0  0  0  0  0  0  0  0  0  0  0
    4.1095   -2.2890    0.0178 C   0  0  0  0  0  0  0  0  0  0  0  0
    3.2068    2.6519    0.0099 C   0  0  0  0  0  0  0  0  0  0  0  0
    3.1308   -1.1037   -0.0243 C   0  0  0  0  0  0  0  0  0  0  0  0
    2.7248    1.2390   -0.0282 C   0  0  0  0  0  0  0  0  0  0  0  0
    3.6271    0.1757    0.0119 C   0  0  0  0  0  0  0  0  0  0  0  0
    3.3212   -3.6156   -0.0355 C   0  0  0  0  0  0  0  0  0  0  0  0
    4.9306   -2.2386    1.3244 C   0  0  0  0  0  0  0  0  0  0  0  0
    5.1172   -2.3096   -1.1537 C   0  0  0  0  0  0  0  0  0  0  0  0
    2.1601    3.5863    0.6906 C   0  0  0  0  0  0  0  0  0  0  0  0
    3.4638    3.1991   -1.4277 C   0  0  0  0  0  0  0  0  0  0  0  0
    4.5427    2.8827    0.7898 C   0  0  0  0  0  0  0  0  0  0  0  0
    1.7888   -1.3882   -0.0984 C   0  0  0  0  0  0  0  0  0  0  0  0
    1.3547    0.9884   -0.1034 C   0  0  0  0  0  0  0  0  0  0  0  0
    0.8867   -0.3252   -0.1385 C   0  0  0  0  0  0  0  0  0  0  0  0
   -0.5420   -0.5864   -0.2173 C   0  0  0  0  0  0  0  0  0  0  0  0
   -1.5162    0.2956    0.1172 C   0  0  0  0  0  0  0  0  0  0  0  0
   -2.9451    0.0935    0.0731 C   0  0  0  0  0  0  0  0  0  0  0  0
   -3.4771   -1.2015    0.0593 C   0  0  0  0  0  0  0  0  0  0  0  0
   -3.8148    1.1906    0.0438 C   0  0  0  0  0  0  0  0  0  0  0  0
   -5.1954    0.9956    0.0011 C   0  0  0  0  0  0  0  0  0  0  0  0
   -4.8577   -1.3966    0.0169 C   0  0  0  0  0  0  0  0  0  0  0  0
   -5.7169   -0.2981   -0.0123 C   0  0  0  0  0  0  0  0  0  0  0  0
   -5.4339    3.3619   -0.0117 C   0  0  0  0  0  0  0  0  0  0  0  0
   -4.4320   -3.7363    0.0355 C   0  0  0  0  0  0  0  0  0  0  0  0
    4.0168   -4.4648    0.0055 H   0  0  0  0  0  0  0  0  0  0  0  0
    2.6549   -3.7482    0.8255 H   0  0  0  0  0  0  0  0  0  0  0  0
    2.7609   -3.7400   -0.9702 H   0  0  0  0  0  0  0  0  0  0  0  0
    4.2748   -2.1451    2.1985 H   0  0  0  0  0  0  0  0  0  0  0  0
    5.5090   -3.1621    1.4515 H   0  0  0  0  0  0  0  0  0  0  0  0
    5.6528   -1.4189    1.3641 H   0  0  0  0  0  0  0  0  0  0  0  0
    5.7216   -3.2244   -1.1384 H   0  0  0  0  0  0  0  0  0  0  0  0
    4.5928   -2.2743   -2.1159 H   0  0  0  0  0  0  0  0  0  0  0  0
    5.8185   -1.4710   -1.1358 H   0  0  0  0  0  0  0  0  0  0  0  0
    1.8584    3.2034    1.6726 H   0  0  0  0  0  0  0  0  0  0  0  0
    1.2637    3.7364    0.0792 H   0  0  0  0  0  0  0  0  0  0  0  0
    2.5711    4.5916    0.8465 H   0  0  0  0  0  0  0  0  0  0  0  0
    4.2262    2.6090   -1.9488 H   0  0  0  0  0  0  0  0  0  0  0  0
    3.8008    4.2416   -1.4026 H   0  0  0  0  0  0  0  0  0  0  0  0
    2.5500    3.1571   -2.0319 H   0  0  0  0  0  0  0  0  0  0  0  0
    5.4386    2.6342    0.2133 H   0  0  0  0  0  0  0  0  0  0  0  0
    4.5525    2.3427    1.7436 H   0  0  0  0  0  0  0  0  0  0  0  0
    4.6689    3.9459    1.0327 H   0  0  0  0  0  0  0  0  0  0  0  0
    1.3610   -2.3814   -0.1278 H   0  0  0  0  0  0  0  0  0  0  0  0
    0.6542    1.8077   -0.1988 H   0  0  0  0  0  0  0  0  0  0  0  0
   -0.8054   -1.5724   -0.5909 H   0  0  0  0  0  0  0  0  0  0  0  0
    5.2180    0.8260   -0.7651 H   0  0  0  0  0  0  0  0  0  0  0  0
   -1.2387    1.2756    0.4986 H   0  0  0  0  0  0  0  0  0  0  0  0
   -2.7895   -2.0375    0.1055 H   0  0  0  0  0  0  0  0  0  0  0  0
   -3.3632    2.1780    0.0530 H   0  0  0  0  0  0  0  0  0  0  0  0
   -6.7927   -0.4502   -0.0455 H   0  0  0  0  0  0  0  0  0  0  0  0
   -4.8217    3.5332   -0.9037 H   0  0  0  0  0  0  0  0  0  0  0  0
   -4.8774    3.5369    0.9154 H   0  0  0  0  0  0  0  0  0  0  0  0
   -6.2471    4.0946   -0.0381 H   0  0  0  0  0  0  0  0  0  0  0  0
   -3.7907   -3.7410   -0.8526 H   0  0  0  0  0  0  0  0  0  0  0  0
   -5.0110   -4.6654    0.0135 H   0  0  0  0  0  0  0  0  0  0  0  0
   -3.8561   -3.7433    0.9672 H   0  0  0  0  0  0  0  0  0  0  0  0
  1  8  1  0  0  0  0
  1 49  1  0  0  0  0
  2 23  1  0  0  0  0
  2 26  1  0  0  0  0
  3 24  1  0  0  0  0
  3 27  1  0  0  0  0
  4  6  1  0  0  0  0
  4  9  1  0  0  0  0
  4 10  1  0  0  0  0
  4 11  1  0  0  0  0
  5  7  1  0  0  0  0
  5 12  1  0  0  0  0
  5 13  1  0  0  0  0
  5 14  1  0  0  0  0
  6  8  2  0  0  0  0
  6 15  1  0  0  0  0
  7  8  1  0  0  0  0
  7 16  2  0  0  0  0
  9 28  1  0  0  0  0
  9 29  1  0  0  0  0
  9 30  1  0  0  0  0
 10 31  1  0  0  0  0
 10 32  1  0  0  0  0
 10 33  1  0  0  0  0
 11 34  1  0  0  0  0
 11 35  1  0  0  0  0
 11 36  1  0  0  0  0
 12 37  1  0  0  0  0
 12 38  1  0  0  0  0
 12 39  1  0  0  0  0
 13 40  1  0  0  0  0
 13 41  1  0  0  0  0
 13 42  1  0  0  0  0
 14 43  1  0  0  0  0
 14 44  1  0  0  0  0
 14 45  1  0  0  0  0
 15 17  2  0  0  0  0
 15 46  1  0  0  0  0
 16 17  1  0  0  0  0
 16 47  1  0  0  0  0
 17 18  1  0  0  0  0
 18 19  2  0  0  0  0
 18 48  1  0  0  0  0
 19 20  1  0  0  0  0
 19 50  1  0  0  0  0
 20 21  2  0  0  0  0
 20 22  1  0  0  0  0
 21 24  1  0  0  0  0
 21 51  1  0  0  0  0
 22 23  2  0  0  0  0
 22 52  1  0  0  0  0
 23 25  1  0  0  0  0
 24 25  2  0  0  0  0
 25 53  1  0  0  0  0
 26 54  1  0  0  0  0
 26 55  1  0  0  0  0
 26 56  1  0  0  0  0
 27 57  1  0  0  0  0
 27 58  1  0  0  0  0
 27 59  1  0  0  0  0
M  END
> <PUBCHEM_COMPOUND_CID>
11199480

> <PUBCHEM_CONFORMER_RMSD>
0.8

> <PUBCHEM_CONFORMER_DIVERSEORDER>
6
3
7
10
2
12
9
8
11
4
1
5

> <PUBCHEM_MMFF94_PARTIAL_CHARGES>
29
1 -0.53
15 -0.15
16 -0.15
17 0.03
18 -0.18
19 -0.18
2 -0.36
20 0.03
21 -0.15
22 -0.15
23 0.08
24 0.08
25 -0.15
26 0.28
27 0.28
3 -0.36
4 0.14
46 0.15
47 0.15
48 0.15
49 0.45
5 0.14
50 0.15
51 0.15
52 0.15
53 0.15
6 -0.14
7 -0.14
8 0.08

> <PUBCHEM_EFFECTIVE_ROTOR_COUNT>
6

> <PUBCHEM_PHARMACOPHORE_FEATURES>
7
1 1 donor
1 2 acceptor
1 3 acceptor
4 4 9 10 11 hydrophobe
4 5 12 13 14 hydrophobe
6 20 21 22 23 24 25 rings
6 6 7 8 15 16 17 rings

> <PUBCHEM_HEAVY_ATOM_COUNT>
27

> <PUBCHEM_ATOM_DEF_STEREO_COUNT>
0

> <PUBCHEM_ATOM_UDEF_STEREO_COUNT>
0

> <PUBCHEM_BOND_DEF_STEREO_COUNT>
1

> <PUBCHEM_BOND_UDEF_STEREO_COUNT>
0

> <PUBCHEM_ISOTOPIC_ATOM_COUNT>
0

> <PUBCHEM_COMPONENT_COUNT>
1

> <PUBCHEM_CACTVS_TAUTO_COUNT>
2

> <PUBCHEM_CONFORMER_ID>
00AAE3F800000006

> <PUBCHEM_MMFF94_ENERGY>
133.7715

> <PUBCHEM_FEATURE_SELFOVERLAP>
35.52

> <PUBCHEM_SHAPE_FINGERPRINT>
10050765 1 18410855490683595243
10411042 1 18195528083189382454
10595046 47 18337673139221159565
10835480 77 18411411809234197165
11136131 41 18261945375713393248
11370993 144 18335700512397902085
11405975 8 18410293588739085171
12107183 9 18193838137573875129
12616971 3 18131348609869535199
12730499 353 18265341792462832250
13009979 54 17702677549008875042
13073987 5 18410011074432977851
13167823 11 18411135857506444303
13533116 47 18339363067039301339
13785724 45 17982738463541028558
13878862 14 18264468655587370853
140371 6 17985275075145784697
14341114 176 18412549777761387905
14790565 3 17976263766120032036
15183329 4 18265897960731406265
15196674 1 18410856581594680461
15250474 111 18270951453496509623
15361156 5 17968672552645550093
15420108 30 18057019511198487146
15927050 60 18125157393459923510
16992752 21 18050573937951653886
17492 89 18411419548586202271
17844677 252 18411426107185294955
17868525 174 18338792304334893800
18681886 176 18272084990071170234
20286276 3 18409737278763288495
20832881 197 18116434743655667418
21033648 144 18337099116879512229
21033648 29 17344321398789500994
21065198 57 18410575076616554247
21315764 268 18408600345423176861
21344244 78 18201142283611783496
21859007 373 17679006116083456485
22149856 69 18193855953494267451
23559900 14 18341889654391537779
239999 70 18272094898629339590
245318 6 16738061978898742717
24771293 8 18129078153277000962
249057 3 18339079264390659461
3004659 81 18338238167717498274
3103668 31 17613442138645015644
3411729 13 18336823191390677856
3421961 26 18410853236005015586
4015057 19 18341600526389831805
4073 2 18187368786959777299
4144715 1 18409174303092466945
4214541 1 18410575055294679063
5104073 3 18410295822153786627
67856867 119 18411978083022482528
9709674 26 18262523701132541899

> <PUBCHEM_SHAPE_MULTIPOLES>
538.04
15.78
4.92
0.85
16.5
0.55
0.05
-1.37
-0.27
-1.98
-0.04
-1.01
0.12
0.02

> <PUBCHEM_SHAPE_SELFOVERLAP>
1136.316

> <PUBCHEM_SHAPE_VOLUME>
306.3

> <PUBCHEM_COORDINATE_TYPE>
2
5
10

$$$$