71524818
  -OEChem-03242010103D

 44 47  0     0  0  0  0  0  0999 V2000
    5.5242   -0.1952   -0.2865 O   0  0  0  0  0  0  0  0  0  0  0  0
   -3.9338    0.3705   -1.0065 N   0  0  0  0  0  0  0  0  0  0  0  0
    0.1736    0.2661    1.2154 N   0  0  0  0  0  0  0  0  0  0  0  0
   -2.8061    2.4874   -0.7968 N   0  0  0  0  0  0  0  0  0  0  0  0
   -0.6796    2.3232    0.3742 N   0  0  0  0  0  0  0  0  0  0  0  0
   -1.4710    4.3725   -0.4329 N   0  0  0  0  0  0  0  0  0  0  0  0
   -1.9693    0.3546    0.0503 C   0  0  0  0  0  0  0  0  0  0  0  0
   -2.4782   -0.9772    0.0259 C   0  0  0  0  0  0  0  0  0  0  0  0
   -3.7069   -0.9376   -0.6401 C   0  0  0  0  0  0  0  0  0  0  0  0
   -2.8953    1.1610   -0.5970 C   0  0  0  0  0  0  0  0  0  0  0  0
   -0.8285    0.9892    0.5433 C   0  0  0  0  0  0  0  0  0  0  0  0
   -2.0109   -2.2174    0.5077 C   0  0  0  0  0  0  0  0  0  0  0  0
    1.5418    0.1495    0.8315 C   0  0  0  0  0  0  0  0  0  0  0  0
   -4.4904   -2.0788   -0.8473 C   0  0  0  0  0  0  0  0  0  0  0  0
   -0.1810   -0.2003    2.5670 C   0  0  0  0  0  0  0  0  0  0  0  0
   -2.7847   -3.3661    0.3073 C   0  0  0  0  0  0  0  0  0  0  0  0
   -1.6644    2.9810   -0.2768 C   0  0  0  0  0  0  0  0  0  0  0  0
   -4.0054   -3.2954   -0.3600 C   0  0  0  0  0  0  0  0  0  0  0  0
    1.8954    0.2095   -0.5164 C   0  0  0  0  0  0  0  0  0  0  0  0
    2.5264   -0.0260    1.8038 C   0  0  0  0  0  0  0  0  0  0  0  0
    3.2337    0.0937   -0.8922 C   0  0  0  0  0  0  0  0  0  0  0  0
    3.8646   -0.1418    1.4281 C   0  0  0  0  0  0  0  0  0  0  0  0
    4.2184   -0.0819    0.0802 C   0  0  0  0  0  0  0  0  0  0  0  0
    5.7919   -0.7722   -1.5637 C   0  0  0  0  0  0  0  0  0  0  0  0
    7.1355   -1.4683   -1.5185 C   0  0  0  0  0  0  0  0  0  0  0  0
   -4.7492    0.6985   -1.5051 H   0  0  0  0  0  0  0  0  0  0  0  0
   -1.0564   -2.3091    1.0147 H   0  0  0  0  0  0  0  0  0  0  0  0
   -5.4411   -2.0254   -1.3673 H   0  0  0  0  0  0  0  0  0  0  0  0
    0.1623    0.5163    3.3224 H   0  0  0  0  0  0  0  0  0  0  0  0
    0.2452   -1.1879    2.7785 H   0  0  0  0  0  0  0  0  0  0  0  0
   -1.2651   -0.2938    2.7017 H   0  0  0  0  0  0  0  0  0  0  0  0
   -2.4258   -4.3243    0.6734 H   0  0  0  0  0  0  0  0  0  0  0  0
   -4.5902   -4.2001   -0.5057 H   0  0  0  0  0  0  0  0  0  0  0  0
    1.1466    0.3431   -1.2927 H   0  0  0  0  0  0  0  0  0  0  0  0
    2.3064   -0.0630    2.8659 H   0  0  0  0  0  0  0  0  0  0  0  0
    3.4688    0.1717   -1.9495 H   0  0  0  0  0  0  0  0  0  0  0  0
    4.6283   -0.2752    2.1896 H   0  0  0  0  0  0  0  0  0  0  0  0
   -2.1723    4.9207   -0.9114 H   0  0  0  0  0  0  0  0  0  0  0  0
   -0.6336    4.8018   -0.0643 H   0  0  0  0  0  0  0  0  0  0  0  0
    5.0414   -1.5244   -1.8375 H   0  0  0  0  0  0  0  0  0  0  0  0
    5.8104    0.0202   -2.3200 H   0  0  0  0  0  0  0  0  0  0  0  0
    7.9268   -0.7616   -1.2471 H   0  0  0  0  0  0  0  0  0  0  0  0
    7.3785   -1.9143   -2.4871 H   0  0  0  0  0  0  0  0  0  0  0  0
    7.1371   -2.2550   -0.7567 H   0  0  0  0  0  0  0  0  0  0  0  0
  1 23  1  0  0  0  0
  1 24  1  0  0  0  0
  2  9  1  0  0  0  0
  2 10  1  0  0  0  0
  2 26  1  0  0  0  0
  3 11  1  0  0  0  0
  3 13  1  0  0  0  0
  3 15  1  0  0  0  0
  4 10  1  0  0  0  0
  4 17  2  0  0  0  0
  5 11  2  0  0  0  0
  5 17  1  0  0  0  0
  6 17  1  0  0  0  0
  6 38  1  0  0  0  0
  6 39  1  0  0  0  0
  7  8  1  0  0  0  0
  7 10  2  0  0  0  0
  7 11  1  0  0  0  0
  8  9  1  0  0  0  0
  8 12  2  0  0  0  0
  9 14  2  0  0  0  0
 12 16  1  0  0  0  0
 12 27  1  0  0  0  0
 13 19  2  0  0  0  0
 13 20  1  0  0  0  0
 14 18  1  0  0  0  0
 14 28  1  0  0  0  0
 15 29  1  0  0  0  0
 15 30  1  0  0  0  0
 15 31  1  0  0  0  0
 16 18  2  0  0  0  0
 16 32  1  0  0  0  0
 18 33  1  0  0  0  0
 19 21  1  0  0  0  0
 19 34  1  0  0  0  0
 20 22  2  0  0  0  0
 20 35  1  0  0  0  0
 21 23  2  0  0  0  0
 21 36  1  0  0  0  0
 22 23  1  0  0  0  0
 22 37  1  0  0  0  0
 24 25  1  0  0  0  0
 24 40  1  0  0  0  0
 24 41  1  0  0  0  0
 25 42  1  0  0  0  0
 25 43  1  0  0  0  0
 25 44  1  0  0  0  0
M  END
> <PUBCHEM_COMPOUND_CID>
71524818

> <PUBCHEM_CONFORMER_RMSD>
0.8

> <PUBCHEM_CONFORMER_DIVERSEORDER>
1
2
9
3
8
6
11
4
5
7
10

> <PUBCHEM_MMFF94_PARTIAL_CHARGES>
33
1 -0.36
10 0.11
11 0.41
12 -0.15
13 0.1
14 -0.15
15 0.37
16 -0.15
17 0.72
18 -0.15
19 -0.15
2 0.03
20 -0.15
21 -0.15
22 -0.15
23 0.08
24 0.28
26 0.27
27 0.15
28 0.15
3 -0.57
32 0.15
33 0.15
34 0.15
35 0.15
36 0.15
37 0.15
38 0.4
39 0.4
4 -0.57
5 -0.62
6 -0.9
9 -0.15

> <PUBCHEM_EFFECTIVE_ROTOR_COUNT>
4

> <PUBCHEM_PHARMACOPHORE_FEATURES>
9
1 1 acceptor
1 2 cation
1 2 donor
1 6 donor
4 4 5 6 17 cation
5 2 7 8 9 10 rings
6 13 19 20 21 22 23 rings
6 4 5 7 10 11 17 rings
6 8 9 12 14 16 18 rings

> <PUBCHEM_HEAVY_ATOM_COUNT>
25

> <PUBCHEM_ATOM_DEF_STEREO_COUNT>
0

> <PUBCHEM_ATOM_UDEF_STEREO_COUNT>
0

> <PUBCHEM_BOND_DEF_STEREO_COUNT>
0

> <PUBCHEM_BOND_UDEF_STEREO_COUNT>
0

> <PUBCHEM_ISOTOPIC_ATOM_COUNT>
0

> <PUBCHEM_COMPONENT_COUNT>
1

> <PUBCHEM_CACTVS_TAUTO_COUNT>
9

> <PUBCHEM_CONFORMER_ID>
044361D200000001

> <PUBCHEM_MMFF94_ENERGY>
94.567

> <PUBCHEM_FEATURE_SELFOVERLAP>
45.877

> <PUBCHEM_SHAPE_FINGERPRINT>
107951 10 18126848184107244485
11049842 53 17618201924296353074
11056379 131 18410575041908935788
11582403 64 15468226911960842857
11796584 16 18127132975289538566
12173636 292 18048858716126509501
12236239 1 17530956952269184241
12553582 1 18262788688056649595
12788726 201 18260260837392950915
13103583 49 14907909330820105151
13544653 18 17418095472180392706
13761468 95 17317044637540468972
13782708 43 17847058904756385182
14251757 5 18335421265965859847
14790565 3 18194391196677426189
14910302 57 18342168930592919062
14950920 106 14764342799046672166
15250474 111 18189046509182756594
15475509 8 18341607145118908663
15842332 3 17678160612810077808
15961568 22 18118953922817877152
16752209 62 18117248468618236763
16992828 155 17170115833516775324
16994733 274 14346337014693589839
17870717 6 18412545409611226319
20505436 4 17679310667307447032
20693207 138 18059850667129001320
20775438 99 16895379089046873411
21033650 10 18261399893285956520
21065201 7 18342449306226560418
21307412 95 18270392910643725583
21756936 100 17460053811339652544
22393880 68 18339923723860131134
2297311 6 18409732884768995847
23379529 103 18196376042086496726
23557571 272 18272086089023375277
23559900 14 18341043099310756968
25122255 55 17917442986578832942
255183 451 17906452478669320343
2838139 119 14490458825250313030
3610482 184 17824008674556497028
4280585 95 18264191681477273360
484985 159 17275113794957620051
4921388 177 18271813375853717120
531348 171 18191595147091833742
57307002 85 18130523984681337030
59755656 520 17914345575732951961
621550 5 17988359377002704529
6371380 46 8934186740067784192

> <PUBCHEM_SHAPE_MULTIPOLES>
483.71
11.88
3.6
1.59
20.85
1.77
0.76
-8.64
-6.65
-5.89
-0.87
1.5
-0.19
1.16

> <PUBCHEM_SHAPE_SELFOVERLAP>
1072.204

> <PUBCHEM_SHAPE_VOLUME>
259.9

> <PUBCHEM_COORDINATE_TYPE>
2
5
10

$$$$