30
 OpenBabel03292022263D

 95100  0  0  0  0  0  0  0  0999 V2000
    2.2635   -0.7171   -1.4205 C   0  0  0  0  0  0  0  0  0  0  0  0
    3.6786   -0.8138   -1.2423 O   0  0  0  0  0  0  0  0  0  0  0  0
    4.3487    0.3812   -1.2510 C   0  0  0  0  0  0  0  0  0  0  0  0
    3.7950    1.5100   -0.6304 C   0  0  0  0  0  0  0  0  0  0  0  0
    4.4214    2.7502   -0.7257 C   0  0  0  0  0  0  0  0  0  0  0  0
    5.6312    2.8716   -1.4118 C   0  0  0  0  0  0  0  0  0  0  0  0
    6.2218    4.1906   -1.5613 C   0  0  0  0  0  0  0  0  0  0  0  0
    6.9817    4.8310   -0.6744 C   0  0  0  0  0  0  0  0  0  0  0  0
    7.5330    4.3673    0.5960 C   0  0  0  0  0  0  0  0  0  0  0  0
    6.8751    4.6453    1.7882 C   0  0  0  0  0  0  0  0  0  0  0  0
    7.4656    4.2804    2.9943 C   0  0  0  0  0  0  0  0  0  0  0  0
    8.7151    3.6394    3.0351 C   0  0  0  0  0  0  0  0  0  0  0  0
    9.1083    3.3885    4.3233 O   0  0  0  0  0  0  0  0  0  0  0  0
   10.3563    2.7560    4.5551 C   0  0  0  0  0  0  0  0  0  0  0  0
    9.3873    3.3558    1.8315 C   0  0  0  0  0  0  0  0  0  0  0  0
   10.6165    2.7571    1.9044 O   0  0  0  0  0  0  0  0  0  0  0  0
   11.3145    2.4675    0.7015 C   0  0  0  0  0  0  0  0  0  0  0  0
    8.7750    3.7092    0.6175 C   0  0  0  0  0  0  0  0  0  0  0  0
    6.9972    6.2366   -1.1036 C   0  0  0  0  0  0  0  0  0  0  0  0
    7.2456    7.1331   -0.3180 O   0  0  0  0  0  0  0  0  0  0  0  0
    6.5885    6.2950   -2.4060 N   0  0  0  0  0  0  0  0  0  0  0  0
    6.3344    7.4367   -3.1487 C   0  0  0  0  0  0  0  0  0  0  0  0
    5.3096    7.5379   -3.8371 O   0  0  0  0  0  0  0  0  0  0  0  0
    7.1851    8.5231   -3.0286 N   0  0  0  0  0  0  0  0  0  0  0  0
    6.7628    9.8246   -3.5644 C   0  0  0  0  0  0  0  0  0  0  0  0
    6.8787   10.9471   -2.5020 C   0  0  0  0  0  0  0  0  0  0  0  0
    8.1676   11.0005   -1.7669 N   0  0  0  0  0  0  0  0  0  0  0  0
    9.2257   11.5743   -2.6114 C   0  0  0  0  0  0  0  0  0  0  0  0
   10.5765   11.7164   -1.9044 C   0  0  0  0  0  0  0  0  0  0  0  0
   10.7797   11.4847   -0.7132 O   0  0  0  0  0  0  0  0  0  0  0  0
   11.7257   12.1806   -2.7282 C   0  0  0  0  0  0  0  0  0  0  0  0
   12.9960   12.1813   -2.1535 C   0  0  0  0  0  0  0  0  0  0  0  0
   14.0749   12.6962   -2.8619 C   0  0  0  0  0  0  0  0  0  0  0  0
   13.8867   13.2527   -4.1352 C   0  0  0  0  0  0  0  0  0  0  0  0
   14.9014   13.8744   -4.8243 O   0  0  0  0  0  0  0  0  0  0  0  0
   15.9178   14.4428   -3.9904 C   0  0  0  0  0  0  0  0  0  0  0  0
   16.6818   15.5368   -4.6922 C   0  0  0  0  0  0  0  0  0  0  0  0
   16.0937   16.3148   -5.6972 C   0  0  0  0  0  0  0  0  0  0  0  0
   16.8019   17.3653   -6.2796 C   0  0  0  0  0  0  0  0  0  0  0  0
   18.0966   17.6569   -5.8538 C   0  0  0  0  0  0  0  0  0  0  0  0
   18.6852   16.9024   -4.8408 C   0  0  0  0  0  0  0  0  0  0  0  0
   17.9799   15.8507   -4.2605 C   0  0  0  0  0  0  0  0  0  0  0  0
   12.6233   13.1940   -4.7482 C   0  0  0  0  0  0  0  0  0  0  0  0
   12.5071   13.7176   -6.0129 O   0  0  0  0  0  0  0  0  0  0  0  0
   11.2289   13.6471   -6.6372 C   0  0  0  0  0  0  0  0  0  0  0  0
   11.5515   12.6489   -4.0373 C   0  0  0  0  0  0  0  0  0  0  0  0
    8.4922    9.6418   -1.2712 C   0  0  0  0  0  0  0  0  0  0  0  0
    8.4988    8.5707   -2.3806 C   0  0  0  0  0  0  0  0  0  0  0  0
    6.0124    5.0891   -2.7156 C   0  0  0  0  0  0  0  0  0  0  0  0
    5.5097    4.7115   -3.7631 O   0  0  0  0  0  0  0  0  0  0  0  0
    6.2378    1.7339   -1.9375 C   0  0  0  0  0  0  0  0  0  0  0  0
    5.6109    0.4803   -1.8601 C   0  0  0  0  0  0  0  0  0  0  0  0
    6.3662   -0.4987   -2.4467 O   0  0  0  0  0  0  0  0  0  0  0  0
    5.8514   -1.8173   -2.5101 C   0  0  0  0  0  0  0  0  0  0  0  0
    1.9570   -1.5007   -2.1190 H   0  0  0  0  0  0  0  0  0  0  0  0
    1.9297    0.2377   -1.8434 H   0  0  0  0  0  0  0  0  0  0  0  0
    1.7683   -0.8943   -0.4613 H   0  0  0  0  0  0  0  0  0  0  0  0
    2.8604    1.4447   -0.0803 H   0  0  0  0  0  0  0  0  0  0  0  0
    3.9410    3.6172   -0.2771 H   0  0  0  0  0  0  0  0  0  0  0  0
    5.9307    5.1774    1.7964 H   0  0  0  0  0  0  0  0  0  0  0  0
    6.9571    4.5156    3.9251 H   0  0  0  0  0  0  0  0  0  0  0  0
   10.4541    2.6103    5.6358 H   0  0  0  0  0  0  0  0  0  0  0  0
   11.1876    3.3930    4.2373 H   0  0  0  0  0  0  0  0  0  0  0  0
   10.3947    1.7637    4.0953 H   0  0  0  0  0  0  0  0  0  0  0  0
   12.2758    2.0207    0.9748 H   0  0  0  0  0  0  0  0  0  0  0  0
   11.5257    3.3791    0.1330 H   0  0  0  0  0  0  0  0  0  0  0  0
   10.7682    1.7370    0.0965 H   0  0  0  0  0  0  0  0  0  0  0  0
    9.2704    3.5103   -0.3291 H   0  0  0  0  0  0  0  0  0  0  0  0
    5.7320    9.7941   -3.9311 H   0  0  0  0  0  0  0  0  0  0  0  0
    7.4063   10.0432   -4.4244 H   0  0  0  0  0  0  0  0  0  0  0  0
    6.0836   10.8021   -1.7591 H   0  0  0  0  0  0  0  0  0  0  0  0
    6.6698   11.9172   -2.9713 H   0  0  0  0  0  0  0  0  0  0  0  0
    8.9185   12.5886   -2.8953 H   0  0  0  0  0  0  0  0  0  0  0  0
    9.3675   10.9804   -3.5197 H   0  0  0  0  0  0  0  0  0  0  0  0
   13.1507   11.8013   -1.1453 H   0  0  0  0  0  0  0  0  0  0  0  0
   15.0487   12.6732   -2.3836 H   0  0  0  0  0  0  0  0  0  0  0  0
   16.6157   13.6432   -3.7122 H   0  0  0  0  0  0  0  0  0  0  0  0
   15.4844   14.8958   -3.0880 H   0  0  0  0  0  0  0  0  0  0  0  0
   15.0780   16.1061   -6.0283 H   0  0  0  0  0  0  0  0  0  0  0  0
   16.3387   17.9593   -7.0629 H   0  0  0  0  0  0  0  0  0  0  0  0
   18.6451   18.4772   -6.3089 H   0  0  0  0  0  0  0  0  0  0  0  0
   19.6901   17.1368   -4.5002 H   0  0  0  0  0  0  0  0  0  0  0  0
   18.4456   15.2792   -3.4587 H   0  0  0  0  0  0  0  0  0  0  0  0
   11.2954   14.1305   -7.6155 H   0  0  0  0  0  0  0  0  0  0  0  0
   10.4707   14.1867   -6.0573 H   0  0  0  0  0  0  0  0  0  0  0  0
   10.9266   12.6054   -6.7990 H   0  0  0  0  0  0  0  0  0  0  0  0
   10.5713   12.6194   -4.4908 H   0  0  0  0  0  0  0  0  0  0  0  0
    7.7324    9.4068   -0.5180 H   0  0  0  0  0  0  0  0  0  0  0  0
    9.4405    9.6070   -0.7307 H   0  0  0  0  0  0  0  0  0  0  0  0
    8.8243    7.5993   -2.0096 H   0  0  0  0  0  0  0  0  0  0  0  0
    9.2301    8.8254   -3.1570 H   0  0  0  0  0  0  0  0  0  0  0  0
    7.1973    1.8081   -2.4434 H   0  0  0  0  0  0  0  0  0  0  0  0
    6.5998   -2.4343   -3.0185 H   0  0  0  0  0  0  0  0  0  0  0  0
    4.9387   -1.8560   -3.1126 H   0  0  0  0  0  0  0  0  0  0  0  0
    5.7067   -2.2404   -1.5114 H   0  0  0  0  0  0  0  0  0  0  0  0
  1  2  1  0  0  0  0
  1 55  1  0  0  0  0
  1 56  1  0  0  0  0
  1 57  1  0  0  0  0
  2  3  1  0  0  0  0
  3  4  1  0  0  0  0
  3 52  2  0  0  0  0
  4  5  2  0  0  0  0
  4 58  1  0  0  0  0
  5  6  1  0  0  0  0
  5 59  1  0  0  0  0
  6  7  1  0  0  0  0
  6 51  2  0  0  0  0
  7  8  2  0  0  0  0
  7 49  1  0  0  0  0
  8  9  1  0  0  0  0
  8 19  1  0  0  0  0
  9 10  1  0  0  0  0
  9 18  2  0  0  0  0
 10 11  2  0  0  0  0
 10 60  1  0  0  0  0
 11 12  1  0  0  0  0
 11 61  1  0  0  0  0
 12 13  1  0  0  0  0
 12 15  2  0  0  0  0
 13 14  1  0  0  0  0
 14 62  1  0  0  0  0
 14 63  1  0  0  0  0
 14 64  1  0  0  0  0
 15 16  1  0  0  0  0
 15 18  1  0  0  0  0
 16 17  1  0  0  0  0
 17 65  1  0  0  0  0
 17 66  1  0  0  0  0
 17 67  1  0  0  0  0
 18 68  1  0  0  0  0
 19 20  2  0  0  0  0
 19 21  1  0  0  0  0
 21 22  1  0  0  0  0
 21 49  1  0  0  0  0
 22 23  2  0  0  0  0
 22 24  1  0  0  0  0
 24 25  1  0  0  0  0
 24 48  1  0  0  0  0
 25 26  1  0  0  0  0
 25 69  1  0  0  0  0
 25 70  1  0  0  0  0
 26 27  1  0  0  0  0
 26 71  1  0  0  0  0
 26 72  1  0  0  0  0
 27 28  1  0  0  0  0
 27 47  1  0  0  0  0
 28 29  1  0  0  0  0
 28 73  1  0  0  0  0
 28 74  1  0  0  0  0
 29 30  2  0  0  0  0
 29 31  1  0  0  0  0
 31 32  1  0  0  0  0
 31 46  2  0  0  0  0
 32 33  2  0  0  0  0
 32 75  1  0  0  0  0
 33 34  1  0  0  0  0
 33 76  1  0  0  0  0
 34 35  1  0  0  0  0
 34 43  2  0  0  0  0
 35 36  1  0  0  0  0
 36 37  1  0  0  0  0
 36 77  1  0  0  0  0
 36 78  1  0  0  0  0
 37 38  1  0  0  0  0
 37 42  2  0  0  0  0
 38 39  2  0  0  0  0
 38 79  1  0  0  0  0
 39 40  1  0  0  0  0
 39 80  1  0  0  0  0
 40 41  2  0  0  0  0
 40 81  1  0  0  0  0
 41 42  1  0  0  0  0
 41 82  1  0  0  0  0
 42 83  1  0  0  0  0
 43 44  1  0  0  0  0
 43 46  1  0  0  0  0
 44 45  1  0  0  0  0
 45 84  1  0  0  0  0
 45 85  1  0  0  0  0
 45 86  1  0  0  0  0
 46 87  1  0  0  0  0
 47 48  1  0  0  0  0
 47 88  1  0  0  0  0
 47 89  1  0  0  0  0
 48 90  1  0  0  0  0
 48 91  1  0  0  0  0
 49 50  2  0  0  0  0
 51 52  1  0  0  0  0
 51 92  1  0  0  0  0
 52 53  1  0  0  0  0
 53 54  1  0  0  0  0
 54 93  1  0  0  0  0
 54 94  1  0  0  0  0
 54 95  1  0  0  0  0
M  END
>  <Energy>
205.502

$$$$