25233117
  -OEChem-03242010103D

 41 44  0     0  0  0  0  0  0999 V2000
    5.6633   -0.5936   -1.1743 O   0  0  0  0  0  0  0  0  0  0  0  0
   -3.7458    0.6470   -0.6747 N   0  0  0  0  0  0  0  0  0  0  0  0
    0.5714    0.0504    1.0057 N   0  0  0  0  0  0  0  0  0  0  0  0
   -2.4429    2.6541   -0.4073 N   0  0  0  0  0  0  0  0  0  0  0  0
   -0.2138    2.2336    0.4726 N   0  0  0  0  0  0  0  0  0  0  0  0
   -0.9335    4.4013   -0.0361 N   0  0  0  0  0  0  0  0  0  0  0  0
   -1.6785    0.3961    0.1251 C   0  0  0  0  0  0  0  0  0  0  0  0
   -2.2868   -0.8907    0.0375 C   0  0  0  0  0  0  0  0  0  0  0  0
   -3.5783   -0.7038   -0.4644 C   0  0  0  0  0  0  0  0  0  0  0  0
   -2.6093    1.3226   -0.3239 C   0  0  0  0  0  0  0  0  0  0  0  0
   -0.4433    0.9018    0.5319 C   0  0  0  0  0  0  0  0  0  0  0  0
   -1.8623   -2.2015    0.3384 C   0  0  0  0  0  0  0  0  0  0  0  0
   -4.4654   -1.7647   -0.6796 C   0  0  0  0  0  0  0  0  0  0  0  0
    1.8729   -0.1149    0.4483 C   0  0  0  0  0  0  0  0  0  0  0  0
    0.4036   -0.5549    2.3389 C   0  0  0  0  0  0  0  0  0  0  0  0
   -2.7398   -3.2713    0.1279 C   0  0  0  0  0  0  0  0  0  0  0  0
   -1.2141    3.0169    0.0122 C   0  0  0  0  0  0  0  0  0  0  0  0
   -4.0212   -3.0539   -0.3733 C   0  0  0  0  0  0  0  0  0  0  0  0
    2.0724    0.0593   -0.9213 C   0  0  0  0  0  0  0  0  0  0  0  0
    2.9473   -0.4496    1.2725 C   0  0  0  0  0  0  0  0  0  0  0  0
    3.3462   -0.1015   -1.4665 C   0  0  0  0  0  0  0  0  0  0  0  0
    4.2210   -0.6104    0.7273 C   0  0  0  0  0  0  0  0  0  0  0  0
    4.4205   -0.4364   -0.6422 C   0  0  0  0  0  0  0  0  0  0  0  0
    6.7164   -0.9361   -0.2745 C   0  0  0  0  0  0  0  0  0  0  0  0
   -4.5864    1.0763   -1.0356 H   0  0  0  0  0  0  0  0  0  0  0  0
   -0.8653   -2.4055    0.7135 H   0  0  0  0  0  0  0  0  0  0  0  0
   -5.4636   -1.5970   -1.0704 H   0  0  0  0  0  0  0  0  0  0  0  0
    0.8878    0.0570    3.1091 H   0  0  0  0  0  0  0  0  0  0  0  0
    0.7827   -1.5829    2.3778 H   0  0  0  0  0  0  0  0  0  0  0  0
   -0.6554   -0.6099    2.6192 H   0  0  0  0  0  0  0  0  0  0  0  0
   -2.4148   -4.2832    0.3550 H   0  0  0  0  0  0  0  0  0  0  0  0
   -4.6864   -3.8992   -0.5301 H   0  0  0  0  0  0  0  0  0  0  0  0
    1.2506    0.3122   -1.5858 H   0  0  0  0  0  0  0  0  0  0  0  0
    2.8592   -0.5770    2.3466 H   0  0  0  0  0  0  0  0  0  0  0  0
    3.4953    0.0336   -2.5343 H   0  0  0  0  0  0  0  0  0  0  0  0
    5.0119   -0.8660    1.4244 H   0  0  0  0  0  0  0  0  0  0  0  0
   -1.6412    5.0401   -0.3715 H   0  0  0  0  0  0  0  0  0  0  0  0
   -0.0285    4.7353    0.2651 H   0  0  0  0  0  0  0  0  0  0  0  0
    7.6329   -1.0220   -0.8674 H   0  0  0  0  0  0  0  0  0  0  0  0
    6.5452   -1.9119    0.1926 H   0  0  0  0  0  0  0  0  0  0  0  0
    6.8869   -0.1461    0.4647 H   0  0  0  0  0  0  0  0  0  0  0  0
  1 23  1  0  0  0  0
  1 24  1  0  0  0  0
  2  9  1  0  0  0  0
  2 10  1  0  0  0  0
  2 25  1  0  0  0  0
  3 11  1  0  0  0  0
  3 14  1  0  0  0  0
  3 15  1  0  0  0  0
  4 10  1  0  0  0  0
  4 17  2  0  0  0  0
  5 11  2  0  0  0  0
  5 17  1  0  0  0  0
  6 17  1  0  0  0  0
  6 37  1  0  0  0  0
  6 38  1  0  0  0  0
  7  8  1  0  0  0  0
  7 10  2  0  0  0  0
  7 11  1  0  0  0  0
  8  9  1  0  0  0  0
  8 12  2  0  0  0  0
  9 13  2  0  0  0  0
 12 16  1  0  0  0  0
 12 26  1  0  0  0  0
 13 18  1  0  0  0  0
 13 27  1  0  0  0  0
 14 19  2  0  0  0  0
 14 20  1  0  0  0  0
 15 28  1  0  0  0  0
 15 29  1  0  0  0  0
 15 30  1  0  0  0  0
 16 18  2  0  0  0  0
 16 31  1  0  0  0  0
 18 32  1  0  0  0  0
 19 21  1  0  0  0  0
 19 33  1  0  0  0  0
 20 22  2  0  0  0  0
 20 34  1  0  0  0  0
 21 23  2  0  0  0  0
 21 35  1  0  0  0  0
 22 23  1  0  0  0  0
 22 36  1  0  0  0  0
 24 39  1  0  0  0  0
 24 40  1  0  0  0  0
 24 41  1  0  0  0  0
M  END
> <PUBCHEM_COMPOUND_CID>
25233117

> <PUBCHEM_CONFORMER_RMSD>
0.6

> <PUBCHEM_CONFORMER_DIVERSEORDER>
1
2
5
4
3
7
6
8

> <PUBCHEM_MMFF94_PARTIAL_CHARGES>
33
1 -0.36
10 0.11
11 0.41
12 -0.15
13 -0.15
14 0.1
15 0.37
16 -0.15
17 0.72
18 -0.15
19 -0.15
2 0.03
20 -0.15
21 -0.15
22 -0.15
23 0.08
24 0.28
25 0.27
26 0.15
27 0.15
3 -0.57
31 0.15
32 0.15
33 0.15
34 0.15
35 0.15
36 0.15
37 0.4
38 0.4
4 -0.57
5 -0.62
6 -0.9
9 -0.15

> <PUBCHEM_EFFECTIVE_ROTOR_COUNT>
3

> <PUBCHEM_PHARMACOPHORE_FEATURES>
9
1 1 acceptor
1 2 cation
1 2 donor
1 6 donor
4 4 5 6 17 cation
5 2 7 8 9 10 rings
6 14 19 20 21 22 23 rings
6 4 5 7 10 11 17 rings
6 8 9 12 13 16 18 rings

> <PUBCHEM_HEAVY_ATOM_COUNT>
24

> <PUBCHEM_ATOM_DEF_STEREO_COUNT>
0

> <PUBCHEM_ATOM_UDEF_STEREO_COUNT>
0

> <PUBCHEM_BOND_DEF_STEREO_COUNT>
0

> <PUBCHEM_BOND_UDEF_STEREO_COUNT>
0

> <PUBCHEM_ISOTOPIC_ATOM_COUNT>
0

> <PUBCHEM_COMPONENT_COUNT>
1

> <PUBCHEM_CACTVS_TAUTO_COUNT>
9

> <PUBCHEM_CONFORMER_ID>
018106DD00000001

> <PUBCHEM_MMFF94_ENERGY>
97.6824

> <PUBCHEM_FEATURE_SELFOVERLAP>
45.877

> <PUBCHEM_SHAPE_FINGERPRINT>
10411042 1 18267021837814641287
107951 10 17983861082023902293
11049842 53 17547556094619822810
11056379 131 18339645529816318148
11796584 16 18127413346417592494
12173636 292 18049993394751332853
12236239 1 17749106647525616898
12363563 72 18268996547454412151
12553582 1 18336539512737119731
12714826 92 18060136531256313674
12788726 201 18261670394004021451
13544653 18 17418376934314451338
13583140 156 17916568849122592242
14251757 5 18334576866964098903
14386348 63 17703793630267518422
14790565 3 18195245504227118473
15463212 79 18115869590246710616
15475509 8 18343304760991547503
15961568 22 18264762341747167968
16752209 62 18262498335403363899
17349148 13 17603585236245151936
1813 80 18199477730218053267
20775438 99 17040901634778972991
20871999 31 18408881841394279575
21033650 10 18119272583762763588
21307412 95 18270955856270550591
21634736 98 18187927355956755612
21728266 224 18335973199882314850
2297311 6 18411986874778644710
23379529 103 18269844283883885942
23402539 116 18335421253465963070
23557571 272 18201439147224401104
23559900 14 18340759416752472344
238078 22 18410294726483561729
266924 1 17895747405516290106
3004659 81 18114738334457906878
3178227 256 18336277765294383377
335352 9 18410851088969975263
4280585 95 18338227258542615084
4921388 177 18201166438149237120
531348 171 18193285087926674782
5326457 24 18188767224707938626
59755656 520 17770794415573429633
6669772 16 17188982752774588276
7364860 26 17762893673536023921
84936 182 7923987346113753215
9709674 26 17905036312019080939

> <PUBCHEM_SHAPE_MULTIPOLES>
463.13
10.63
3.58
1.26
15.28
2.81
0.43
-7.48
-3.73
-5.2
-0.15
0.97
-0.24
0.01

> <PUBCHEM_SHAPE_SELFOVERLAP>
1034.67

> <PUBCHEM_SHAPE_VOLUME>
245.6

> <PUBCHEM_COORDINATE_TYPE>
2
5
10

$$$$