31
 OpenBabel03292022263D

 88 92  0  0  1  0  0  0  0  0999 V2000
    1.1573    0.5425   -0.3058 C   0  0  0  0  0  0  0  0  0  0  0  0
    2.3942   -0.0864    0.0053 O   0  0  0  0  0  0  0  0  0  0  0  0
    2.9563   -0.8419   -0.9824 C   0  0  0  0  0  0  0  0  0  0  0  0
    2.7167   -0.7114   -2.3496 C   0  0  0  0  0  0  0  0  0  0  0  0
    3.4158   -1.4995   -3.2969 C   0  0  0  0  0  0  0  0  0  0  0  0
    3.1579   -1.1072   -4.5832 O   0  0  0  0  0  0  0  0  0  0  0  0
    2.7978   -2.1161   -5.5185 C   0  0  0  0  0  0  0  0  0  0  0  0
    4.3684   -2.4266   -2.8518 C   0  0  0  0  0  0  0  0  0  0  0  0
    4.6115   -2.5320   -1.4708 C   0  0  0  0  0  0  0  0  0  0  0  0
    3.9036   -1.7570   -0.5494 C   0  0  0  0  0  0  0  0  0  0  0  0
    5.6031   -3.2945   -0.9015 O   0  0  0  0  0  0  0  0  0  0  0  0
    6.6597   -3.6983   -1.7981 C   0  0  2  0  0  0  0  0  0  0  0  0
    7.6787   -2.5778   -2.0794 C   0  0  0  0  0  0  0  0  0  0  0  0
    7.5751   -1.3137   -1.4813 C   0  0  0  0  0  0  0  0  0  0  0  0
    8.4970   -0.2909   -1.7415 C   0  0  0  0  0  0  0  0  0  0  0  0
    8.4014    0.9646   -1.1855 O   0  0  0  0  0  0  0  0  0  0  0  0
    7.5536    1.0972   -0.0491 C   0  0  0  0  0  0  0  0  0  0  0  0
    9.5761   -0.5268   -2.6164 C   0  0  0  0  0  0  0  0  0  0  0  0
   10.3903    0.5595   -2.8544 O   0  0  0  0  0  0  0  0  0  0  0  0
   11.7843    0.3043   -2.9764 C   0  0  0  0  0  0  0  0  0  0  0  0
    9.7097   -1.7909   -3.2220 C   0  0  0  0  0  0  0  0  0  0  0  0
   10.7490   -1.9688   -4.0980 O   0  0  0  0  0  0  0  0  0  0  0  0
   10.9063   -3.2397   -4.7125 C   0  0  0  0  0  0  0  0  0  0  0  0
    8.7687   -2.8012   -2.9359 C   0  0  0  0  0  0  0  0  0  0  0  0
    6.0317   -4.3529   -3.0403 C   0  0  1  0  0  0  0  0  0  0  0  0
    5.1280   -5.4532   -2.7461 O   0  0  0  0  0  0  0  0  0  0  0  0
    5.7441   -6.5935   -2.3442 C   0  0  0  0  0  0  0  0  0  0  0  0
    6.9534   -6.6869   -2.1366 O   0  0  0  0  0  0  0  0  0  0  0  0
    4.8151   -7.7506   -2.1815 C   0  0  0  0  0  0  0  0  0  0  0  0
    3.4650   -7.6918   -2.5516 C   0  0  0  0  0  0  0  0  0  0  0  0
    2.6423   -8.8145   -2.3869 C   0  0  0  0  0  0  0  0  0  0  0  0
    3.1666   -9.9909   -1.8555 C   0  0  0  0  0  0  0  0  0  0  0  0
    2.3735  -11.0662   -1.7311 F   0  0  0  0  0  0  0  0  0  0  0  0
    4.5186  -10.0880   -1.5260 C   0  0  0  0  0  0  0  0  0  0  0  0
    5.0125  -11.3413   -1.0816 N   0  0  0  0  0  0  0  0  0  0  0  0
    6.2195  -11.8533   -1.5329 C   0  0  0  0  0  0  0  0  0  0  0  0
    6.9744  -11.2894   -2.3171 O   0  0  0  0  0  0  0  0  0  0  0  0
    6.5459  -13.2423   -1.1081 C   0  0  0  0  0  0  0  0  0  0  0  0
    7.1945  -14.0660   -2.0301 C   0  0  0  0  0  0  0  0  0  0  0  0
    7.5787  -15.3611   -1.6753 C   0  0  0  0  0  0  0  0  0  0  0  0
    8.2259  -16.2131   -2.5398 O   0  0  0  0  0  0  0  0  0  0  0  0
    8.9104  -15.6040   -3.6313 C   0  0  0  0  0  0  0  0  0  0  0  0
    7.2895  -15.8511   -0.3821 C   0  0  0  0  0  0  0  0  0  0  0  0
    7.6409  -17.1660   -0.1674 O   0  0  0  0  0  0  0  0  0  0  0  0
    8.1065  -17.5185    1.1294 C   0  0  0  0  0  0  0  0  0  0  0  0
    6.6222  -15.0224    0.5479 C   0  0  0  0  0  0  0  0  0  0  0  0
    6.3258  -15.5546    1.7752 O   0  0  0  0  0  0  0  0  0  0  0  0
    5.6631  -14.7372    2.7296 C   0  0  0  0  0  0  0  0  0  0  0  0
    6.2670  -13.7129    0.1781 C   0  0  0  0  0  0  0  0  0  0  0  0
    5.3354   -8.9601   -1.6761 C   0  0  0  0  0  0  0  0  0  0  0  0
    5.2435   -3.2550   -3.7220 C   0  0  0  0  0  0  0  0  0  0  0  0
    5.3753   -3.0526   -4.9273 O   0  0  0  0  0  0  0  0  0  0  0  0
    0.7938    1.0326    0.6026 H   0  0  0  0  0  0  0  0  0  0  0  0
    0.4140   -0.2016   -0.6080 H   0  0  0  0  0  0  0  0  0  0  0  0
    1.2794    1.3154   -1.0698 H   0  0  0  0  0  0  0  0  0  0  0  0
    2.0271    0.0338   -2.7262 H   0  0  0  0  0  0  0  0  0  0  0  0
    2.0524   -1.6858   -6.1955 H   0  0  0  0  0  0  0  0  0  0  0  0
    2.3643   -3.0056   -5.0523 H   0  0  0  0  0  0  0  0  0  0  0  0
    3.6506   -2.3704   -6.1487 H   0  0  0  0  0  0  0  0  0  0  0  0
    4.1392   -1.8290    0.5107 H   0  0  0  0  0  0  0  0  0  0  0  0
    7.2165   -4.4499   -1.2285 H   0  0  0  0  0  0  0  0  0  0  0  0
    6.7494   -1.1187   -0.8089 H   0  0  0  0  0  0  0  0  0  0  0  0
    7.6992    2.0961    0.3717 H   0  0  0  0  0  0  0  0  0  0  0  0
    7.8163    0.3685    0.7264 H   0  0  0  0  0  0  0  0  0  0  0  0
    6.4983    1.0092   -0.3301 H   0  0  0  0  0  0  0  0  0  0  0  0
   12.3086    1.2582   -2.8525 H   0  0  0  0  0  0  0  0  0  0  0  0
   12.0392   -0.0544   -3.9771 H   0  0  0  0  0  0  0  0  0  0  0  0
   12.1470   -0.3772   -2.1996 H   0  0  0  0  0  0  0  0  0  0  0  0
   11.7896   -3.1922   -5.3562 H   0  0  0  0  0  0  0  0  0  0  0  0
   10.0459   -3.4803   -5.3449 H   0  0  0  0  0  0  0  0  0  0  0  0
   11.0833   -4.0188   -3.9640 H   0  0  0  0  0  0  0  0  0  0  0  0
    8.8700   -3.7817   -3.3898 H   0  0  0  0  0  0  0  0  0  0  0  0
    6.7909   -4.7051   -3.7485 H   0  0  0  0  0  0  0  0  0  0  0  0
    3.0400   -6.7870   -2.9792 H   0  0  0  0  0  0  0  0  0  0  0  0
    1.5999   -8.7902   -2.6936 H   0  0  0  0  0  0  0  0  0  0  0  0
    4.3089  -12.0206   -0.8075 H   0  0  0  0  0  0  0  0  0  0  0  0
    7.3789  -13.6753   -3.0264 H   0  0  0  0  0  0  0  0  0  0  0  0
    9.5094  -16.3724   -4.1287 H   0  0  0  0  0  0  0  0  0  0  0  0
    9.5934  -14.8202   -3.2845 H   0  0  0  0  0  0  0  0  0  0  0  0
    8.2032  -15.2110   -4.3691 H   0  0  0  0  0  0  0  0  0  0  0  0
    8.6306  -18.4767    1.0439 H   0  0  0  0  0  0  0  0  0  0  0  0
    7.2736  -17.6855    1.8178 H   0  0  0  0  0  0  0  0  0  0  0  0
    8.8175  -16.7860    1.5258 H   0  0  0  0  0  0  0  0  0  0  0  0
    5.4891  -15.3420    3.6246 H   0  0  0  0  0  0  0  0  0  0  0  0
    4.6875  -14.4073    2.3585 H   0  0  0  0  0  0  0  0  0  0  0  0
    6.2889  -13.8862    3.0176 H   0  0  0  0  0  0  0  0  0  0  0  0
    5.7892  -13.0423    0.8820 H   0  0  0  0  0  0  0  0  0  0  0  0
    6.3871   -9.0130   -1.3935 H   0  0  0  0  0  0  0  0  0  0  0  0
  1  2  1  0  0  0  0
  1 53  1  0  0  0  0
  1 54  1  0  0  0  0
  1 55  1  0  0  0  0
  2  3  1  0  0  0  0
  3  4  1  0  0  0  0
  3 10  2  0  0  0  0
  4  5  2  0  0  0  0
  4 56  1  0  0  0  0
  5  6  1  0  0  0  0
  5  8  1  0  0  0  0
  6  7  1  0  0  0  0
  7 57  1  0  0  0  0
  7 58  1  0  0  0  0
  7 59  1  0  0  0  0
  8  9  2  0  0  0  0
  8 51  1  0  0  0  0
  9 10  1  0  0  0  0
  9 11  1  0  0  0  0
 10 60  1  0  0  0  0
 11 12  1  0  0  0  0
 12 13  1  0  0  0  0
 12 25  1  0  0  0  0
 12 61  1  1  0  0  0
 13 14  1  0  0  0  0
 13 24  2  0  0  0  0
 14 15  2  0  0  0  0
 14 62  1  0  0  0  0
 15 16  1  0  0  0  0
 15 18  1  0  0  0  0
 16 17  1  0  0  0  0
 17 63  1  0  0  0  0
 17 64  1  0  0  0  0
 17 65  1  0  0  0  0
 18 19  1  0  0  0  0
 18 21  2  0  0  0  0
 19 20  1  0  0  0  0
 20 66  1  0  0  0  0
 20 67  1  0  0  0  0
 20 68  1  0  0  0  0
 21 22  1  0  0  0  0
 21 24  1  0  0  0  0
 22 23  1  0  0  0  0
 23 69  1  0  0  0  0
 23 70  1  0  0  0  0
 23 71  1  0  0  0  0
 24 72  1  0  0  0  0
 25 51  1  0  0  0  0
 25 26  1  0  0  0  0
 25 73  1  6  0  0  0
 26 27  1  0  0  0  0
 27 28  2  0  0  0  0
 27 29  1  0  0  0  0
 29 30  1  0  0  0  0
 29 50  2  0  0  0  0
 30 31  2  0  0  0  0
 30 74  1  0  0  0  0
 31 32  1  0  0  0  0
 31 75  1  0  0  0  0
 32 33  1  0  0  0  0
 32 34  2  0  0  0  0
 34 35  1  0  0  0  0
 34 50  1  0  0  0  0
 35 36  1  0  0  0  0
 35 76  1  0  0  0  0
 36 37  2  0  0  0  0
 36 38  1  0  0  0  0
 38 39  1  0  0  0  0
 38 49  2  0  0  0  0
 39 40  2  0  0  0  0
 39 77  1  0  0  0  0
 40 41  1  0  0  0  0
 40 43  1  0  0  0  0
 41 42  1  0  0  0  0
 42 78  1  0  0  0  0
 42 79  1  0  0  0  0
 42 80  1  0  0  0  0
 43 44  1  0  0  0  0
 43 46  2  0  0  0  0
 44 45  1  0  0  0  0
 45 81  1  0  0  0  0
 45 82  1  0  0  0  0
 45 83  1  0  0  0  0
 46 47  1  0  0  0  0
 46 49  1  0  0  0  0
 47 48  1  0  0  0  0
 48 84  1  0  0  0  0
 48 85  1  0  0  0  0
 48 86  1  0  0  0  0
 49 87  1  0  0  0  0
 50 88  1  0  0  0  0
 51 52  2  0  0  0  0
M  END
>  <Energy>
227.528

$$$$