137650562
  -OEChem-03242010103D

 53 55  0     0  0  0  0  0  0999 V2000
    3.9271    0.7173   -1.4371 O   0  0  0  0  0  0  0  0  0  0  0  0
    0.4870    0.3611    0.6666 N   0  0  0  0  0  0  0  0  0  0  0  0
   -4.2374   -0.5147   -0.4861 N   0  0  0  0  0  0  0  0  0  0  0  0
   -0.8621    0.2309    1.2244 C   0  0  0  0  0  0  0  0  0  0  0  0
   -1.8755   -0.0754    0.1223 C   0  0  0  0  0  0  0  0  0  0  0  0
    1.2200   -0.8142    0.3851 C   0  0  0  0  0  0  0  0  0  0  0  0
   -3.3273   -0.1751    0.6009 C   0  0  0  0  0  0  0  0  0  0  0  0
    1.0199    1.6563    0.4764 C   0  0  0  0  0  0  0  0  0  0  0  0
    2.4359   -0.7211   -0.3200 C   0  0  0  0  0  0  0  0  0  0  0  0
    2.2308    1.8117   -0.2263 C   0  0  0  0  0  0  0  0  0  0  0  0
    0.8152   -2.1011    0.7848 C   0  0  0  0  0  0  0  0  0  0  0  0
    2.9383    0.6109   -0.7232 C   0  0  0  0  0  0  0  0  0  0  0  0
   -4.5525    0.6714   -1.2845 C   0  0  0  0  0  0  0  0  0  0  0  0
   -5.4658   -1.1146    0.0380 C   0  0  0  0  0  0  0  0  0  0  0  0
    3.1923   -1.8569   -0.6421 C   0  0  0  0  0  0  0  0  0  0  0  0
    1.5689   -3.2372    0.4696 C   0  0  0  0  0  0  0  0  0  0  0  0
    2.7526   -3.1158   -0.2478 C   0  0  0  0  0  0  0  0  0  0  0  0
    0.4159    2.8286    0.9667 C   0  0  0  0  0  0  0  0  0  0  0  0
    2.7931    3.0748   -0.4596 C   0  0  0  0  0  0  0  0  0  0  0  0
   -0.4822   -2.3959    1.4738 C   0  0  0  0  0  0  0  0  0  0  0  0
    0.9755    4.0911    0.7403 C   0  0  0  0  0  0  0  0  0  0  0  0
    2.1593    4.2144    0.0231 C   0  0  0  0  0  0  0  0  0  0  0  0
   -5.4477    0.3196   -2.4605 C   0  0  0  0  0  0  0  0  0  0  0  0
   -6.2214   -0.1358    0.9208 C   0  0  0  0  0  0  0  0  0  0  0  0
    3.5401   -4.3302   -0.6055 C   0  0  0  0  0  0  0  0  0  0  0  0
   -0.9300   -0.3338    2.1462 H   0  0  0  0  0  0  0  0  0  0  0  0
   -1.2266    1.1703    1.6402 H   0  0  0  0  0  0  0  0  0  0  0  0
   -1.6052   -0.9395   -0.4936 H   0  0  0  0  0  0  0  0  0  0  0  0
   -1.8121    0.7622   -0.5871 H   0  0  0  0  0  0  0  0  0  0  0  0
   -3.3506   -0.9581    1.3701 H   0  0  0  0  0  0  0  0  0  0  0  0
   -3.6053    0.7618    1.1006 H   0  0  0  0  0  0  0  0  0  0  0  0
   -6.1120   -1.4941   -0.7605 H   0  0  0  0  0  0  0  0  0  0  0  0
   -5.2115   -2.0062    0.6260 H   0  0  0  0  0  0  0  0  0  0  0  0
   -4.9801    1.4995   -0.7083 H   0  0  0  0  0  0  0  0  0  0  0  0
   -3.6263    1.0640   -1.7202 H   0  0  0  0  0  0  0  0  0  0  0  0
    4.1250   -1.7636   -1.1929 H   0  0  0  0  0  0  0  0  0  0  0  0
    1.2365   -4.2302    0.7650 H   0  0  0  0  0  0  0  0  0  0  0  0
   -0.4972    2.8450    1.5482 H   0  0  0  0  0  0  0  0  0  0  0  0
    3.7254    3.1867   -1.0063 H   0  0  0  0  0  0  0  0  0  0  0  0
   -0.4887   -2.0516    2.5111 H   0  0  0  0  0  0  0  0  0  0  0  0
   -1.3917   -2.2393    0.9118 H   0  0  0  0  0  0  0  0  0  0  0  0
   -0.5488   -3.4843    1.6372 H   0  0  0  0  0  0  0  0  0  0  0  0
    0.4834    4.9783    1.1291 H   0  0  0  0  0  0  0  0  0  0  0  0
   -5.4732    1.1586   -3.1650 H   0  0  0  0  0  0  0  0  0  0  0  0
   -7.0832   -0.6557    1.3568 H   0  0  0  0  0  0  0  0  0  0  0  0
   -6.4828    0.1315   -2.1602 H   0  0  0  0  0  0  0  0  0  0  0  0
   -6.6339    0.7148    0.3712 H   0  0  0  0  0  0  0  0  0  0  0  0
   -5.6355    0.2354    1.7662 H   0  0  0  0  0  0  0  0  0  0  0  0
   -5.0734   -0.5523   -3.0083 H   0  0  0  0  0  0  0  0  0  0  0  0
    2.5918    5.1948   -0.1515 H   0  0  0  0  0  0  0  0  0  0  0  0
    4.1872   -4.6175    0.2292 H   0  0  0  0  0  0  0  0  0  0  0  0
    2.8783   -5.1696   -0.8447 H   0  0  0  0  0  0  0  0  0  0  0  0
    4.1666   -4.1556   -1.4868 H   0  0  0  0  0  0  0  0  0  0  0  0
  1 12  2  0  0  0  0
  2  4  1  0  0  0  0
  2  6  1  0  0  0  0
  2  8  1  0  0  0  0
  3  7  1  0  0  0  0
  3 13  1  0  0  0  0
  3 14  1  0  0  0  0
  4  5  1  0  0  0  0
  4 26  1  0  0  0  0
  4 27  1  0  0  0  0
  5  7  1  0  0  0  0
  5 28  1  0  0  0  0
  5 29  1  0  0  0  0
  6  9  1  0  0  0  0
  6 11  2  0  0  0  0
  7 30  1  0  0  0  0
  7 31  1  0  0  0  0
  8 10  1  0  0  0  0
  8 18  2  0  0  0  0
  9 12  1  0  0  0  0
  9 15  2  0  0  0  0
 10 12  1  0  0  0  0
 10 19  2  0  0  0  0
 11 16  1  0  0  0  0
 11 20  1  0  0  0  0
 13 23  1  0  0  0  0
 13 34  1  0  0  0  0
 13 35  1  0  0  0  0
 14 24  1  0  0  0  0
 14 32  1  0  0  0  0
 14 33  1  0  0  0  0
 15 17  1  0  0  0  0
 15 36  1  0  0  0  0
 16 17  2  0  0  0  0
 16 37  1  0  0  0  0
 17 25  1  0  0  0  0
 18 21  1  0  0  0  0
 18 38  1  0  0  0  0
 19 22  1  0  0  0  0
 19 39  1  0  0  0  0
 20 40  1  0  0  0  0
 20 41  1  0  0  0  0
 20 42  1  0  0  0  0
 21 22  2  0  0  0  0
 21 43  1  0  0  0  0
 22 50  1  0  0  0  0
 23 44  1  0  0  0  0
 23 46  1  0  0  0  0
 23 49  1  0  0  0  0
 24 45  1  0  0  0  0
 24 47  1  0  0  0  0
 24 48  1  0  0  0  0
 25 51  1  0  0  0  0
 25 52  1  0  0  0  0
 25 53  1  0  0  0  0
M  END
> <PUBCHEM_COMPOUND_CID>
137650562

> <PUBCHEM_CONFORMER_RMSD>
0.8

> <PUBCHEM_CONFORMER_DIVERSEORDER>
1
10
11
6
9
4
5
7
3
2
8

> <PUBCHEM_MMFF94_PARTIAL_CHARGES>
28
1 -0.57
10 0.09
11 -0.14
12 0.4
13 0.27
14 0.27
15 -0.15
16 -0.15
17 -0.14
18 -0.15
19 -0.15
2 -0.57
20 0.14
21 -0.15
22 -0.15
25 0.14
3 -0.81
36 0.15
37 0.15
38 0.15
39 0.15
4 0.37
43 0.15
50 0.15
6 0.1
7 0.27
8 0.1
9 0.09

> <PUBCHEM_EFFECTIVE_ROTOR_COUNT>
6

> <PUBCHEM_PHARMACOPHORE_FEATURES>
6
1 1 acceptor
1 2 cation
1 3 cation
6 2 6 8 9 10 12 rings
6 6 9 11 15 16 17 rings
6 8 10 18 19 21 22 rings

> <PUBCHEM_HEAVY_ATOM_COUNT>
25

> <PUBCHEM_ATOM_DEF_STEREO_COUNT>
0

> <PUBCHEM_ATOM_UDEF_STEREO_COUNT>
0

> <PUBCHEM_BOND_DEF_STEREO_COUNT>
0

> <PUBCHEM_BOND_UDEF_STEREO_COUNT>
0

> <PUBCHEM_ISOTOPIC_ATOM_COUNT>
0

> <PUBCHEM_COMPONENT_COUNT>
1

> <PUBCHEM_CACTVS_TAUTO_COUNT>
-1

> <PUBCHEM_CONFORMER_ID>
0834618200000001

> <PUBCHEM_MMFF94_ENERGY>
101.4979

> <PUBCHEM_FEATURE_SELFOVERLAP>
30.491

> <PUBCHEM_SHAPE_FINGERPRINT>
10074138 170 10050906849413582094
10411042 1 18194691358349784786
10693767 8 18130519556580507038
12107183 9 18055649309120088737
12730499 353 18263655128920322259
12769317 202 18336258037333030541
12788726 201 17329416252012734561
13009979 54 17702112361019075771
13140716 1 18052567596928294088
138480 1 18411423873501653314
13911987 19 18119557507477186460
13955234 65 18411703226906944955
14508225 48 18195528078308644894
15081414 286 18411700954536948651
16708801 149 13266576833415769623
17539 30 17619905063502117654
1813 80 17987525801349943759
20645477 70 18408324376225118475
21304303 282 16904921677353905892
22033318 11 17698198104736832465
221357 26 18335700482475425727
23536364 44 17829888733334025095
23559900 14 18411418448873705578
238 59 18339080500871807315
2748010 2 17762646244791416536
4409770 3 17114939453568134984
44317340 157 18339350951680092053
46194498 28 17749681769917463535
495365 180 18197213856987789144
5281201 14 18333730191897956279
59682541 52 18268685300634617205
5969126 39 17980757143783032918
70251023 43 18122917429632165938
7164475 11 18051981312122173614
7471813 234 18196647406767688750

> <PUBCHEM_SHAPE_MULTIPOLES>
498.66
10.04
5.34
1.39
21.58
1.61
0.49
-3.07
4.27
-8.63
-0.57
1.47
0
0.68

> <PUBCHEM_SHAPE_SELFOVERLAP>
1062.613

> <PUBCHEM_SHAPE_VOLUME>
279.7

> <PUBCHEM_COORDINATE_TYPE>
2
5
10

$$$$