122179374
  -OEChem-03242010103D

 71 74  0     1  0  0  0  0  0999 V2000
    2.6681    0.0124   -0.8217 O   0  0  0  0  0  0  0  0  0  0  0  0
    0.2833    0.3163    0.7644 O   0  0  0  0  0  0  0  0  0  0  0  0
    3.1317    4.0100    1.8756 O   0  0  0  0  0  0  0  0  0  0  0  0
    4.5675    3.9404   -2.6600 O   0  0  0  0  0  0  0  0  0  0  0  0
   -0.3639   -3.5681   -2.5000 O   0  0  0  0  0  0  0  0  0  0  0  0
    1.9452   -5.5568    1.1947 O   0  0  0  0  0  0  0  0  0  0  0  0
    0.2569   -5.8035   -0.9874 O   0  0  0  0  0  0  0  0  0  0  0  0
   -0.7499    0.2485    2.8298 O   0  0  0  0  0  0  0  0  0  0  0  0
   -7.9901    2.0562   -1.1942 O   0  0  0  0  0  0  0  0  0  0  0  0
    1.5403    0.0089    1.3690 C   0  0  1  0  0  0  0  0  0  0  0  0
    2.4317   -0.7468    0.3749 C   0  0  1  0  0  0  0  0  0  0  0  0
    2.2291    1.3078    1.7829 C   0  0  0  0  0  0  0  0  0  0  0  0
    2.8537    1.9913    0.5966 C   0  0  0  0  0  0  0  0  0  0  0  0
    1.8497   -2.1000    0.0107 C   0  0  0  0  0  0  0  0  0  0  0  0
    3.0428    1.3149   -0.6152 C   0  0  0  0  0  0  0  0  0  0  0  0
    3.2747    3.3236    0.7056 C   0  0  0  0  0  0  0  0  0  0  0  0
    3.6062    1.9738   -1.7110 C   0  0  0  0  0  0  0  0  0  0  0  0
    2.1641   -3.2233    0.7754 C   0  0  0  0  0  0  0  0  0  0  0  0
    1.0000   -2.2206   -1.0890 C   0  0  0  0  0  0  0  0  0  0  0  0
    3.8501    3.9758   -0.3854 C   0  0  0  0  0  0  0  0  0  0  0  0
    4.0118    3.3024   -1.5941 C   0  0  0  0  0  0  0  0  0  0  0  0
    0.4647   -3.4643   -1.4239 C   0  0  0  0  0  0  0  0  0  0  0  0
    1.6288   -4.4672    0.4406 C   0  0  0  0  0  0  0  0  0  0  0  0
    0.7792   -4.5876   -0.6592 C   0  0  0  0  0  0  0  0  0  0  0  0
   -0.7728    0.4041    1.6191 C   0  0  0  0  0  0  0  0  0  0  0  0
   -1.9748    0.7264    0.8172 C   0  0  0  0  0  0  0  0  0  0  0  0
    4.2135    3.9413    2.8014 C   0  0  0  0  0  0  0  0  0  0  0  0
    4.9600    5.2993   -2.4709 C   0  0  0  0  0  0  0  0  0  0  0  0
   -0.6339   -2.3714   -3.2277 C   0  0  0  0  0  0  0  0  0  0  0  0
    2.8202   -5.3468    2.3013 C   0  0  0  0  0  0  0  0  0  0  0  0
   -3.1590    0.8684    1.4294 C   0  0  0  0  0  0  0  0  0  0  0  0
   -0.9921   -6.1522   -0.3947 C   0  0  0  0  0  0  0  0  0  0  0  0
   -4.4249    1.1781    0.7415 C   0  0  0  0  0  0  0  0  0  0  0  0
   -4.4055    1.7472   -0.5319 C   0  0  0  0  0  0  0  0  0  0  0  0
   -5.6425    0.9037    1.3643 C   0  0  0  0  0  0  0  0  0  0  0  0
   -5.6036    2.0419   -1.1825 C   0  0  0  0  0  0  0  0  0  0  0  0
   -6.8406    1.1985    0.7138 C   0  0  0  0  0  0  0  0  0  0  0  0
   -6.8211    1.7676   -0.5595 C   0  0  0  0  0  0  0  0  0  0  0  0
   -9.1984    1.7499   -0.4996 C   0  0  0  0  0  0  0  0  0  0  0  0
    1.3879   -0.6189    2.2571 H   0  0  0  0  0  0  0  0  0  0  0  0
    3.4179   -0.9258    0.8283 H   0  0  0  0  0  0  0  0  0  0  0  0
    3.0246    1.0755    2.5006 H   0  0  0  0  0  0  0  0  0  0  0  0
    1.5088    1.9792    2.2641 H   0  0  0  0  0  0  0  0  0  0  0  0
    3.7357    1.4497   -2.6549 H   0  0  0  0  0  0  0  0  0  0  0  0
    2.8271   -3.0677    1.6198 H   0  0  0  0  0  0  0  0  0  0  0  0
    0.7736   -1.3176   -1.6444 H   0  0  0  0  0  0  0  0  0  0  0  0
    4.1491    5.0076   -0.2321 H   0  0  0  0  0  0  0  0  0  0  0  0
   -1.8430    0.8143   -0.2550 H   0  0  0  0  0  0  0  0  0  0  0  0
    3.9116    4.4539    3.7189 H   0  0  0  0  0  0  0  0  0  0  0  0
    5.0934    4.4479    2.3925 H   0  0  0  0  0  0  0  0  0  0  0  0
    4.4618    2.9045    3.0467 H   0  0  0  0  0  0  0  0  0  0  0  0
    5.3801    5.6491   -3.4197 H   0  0  0  0  0  0  0  0  0  0  0  0
    5.7514    5.3888   -1.7191 H   0  0  0  0  0  0  0  0  0  0  0  0
    4.0998    5.9394   -2.2473 H   0  0  0  0  0  0  0  0  0  0  0  0
   -1.1640   -1.6356   -2.6129 H   0  0  0  0  0  0  0  0  0  0  0  0
    0.2741   -1.9609   -3.6827 H   0  0  0  0  0  0  0  0  0  0  0  0
   -1.3061   -2.6397   -4.0495 H   0  0  0  0  0  0  0  0  0  0  0  0
    2.3743   -4.6810    3.0481 H   0  0  0  0  0  0  0  0  0  0  0  0
    2.9628   -6.3176    2.7874 H   0  0  0  0  0  0  0  0  0  0  0  0
    3.8093   -5.0071    1.9756 H   0  0  0  0  0  0  0  0  0  0  0  0
   -3.2363    0.7426    2.5070 H   0  0  0  0  0  0  0  0  0  0  0  0
   -1.2759   -7.1454   -0.7531 H   0  0  0  0  0  0  0  0  0  0  0  0
   -1.7699   -5.4396   -0.6873 H   0  0  0  0  0  0  0  0  0  0  0  0
   -0.9052   -6.1857    0.6959 H   0  0  0  0  0  0  0  0  0  0  0  0
   -3.4824    1.9966   -1.0468 H   0  0  0  0  0  0  0  0  0  0  0  0
   -5.6755    0.4594    2.3563 H   0  0  0  0  0  0  0  0  0  0  0  0
   -5.5828    2.4894   -2.1725 H   0  0  0  0  0  0  0  0  0  0  0  0
   -7.7499    0.9597    1.2548 H   0  0  0  0  0  0  0  0  0  0  0  0
  -10.0286    2.0440   -1.1503 H   0  0  0  0  0  0  0  0  0  0  0  0
   -9.2921    2.3343    0.4219 H   0  0  0  0  0  0  0  0  0  0  0  0
   -9.2982    0.6738   -0.3209 H   0  0  0  0  0  0  0  0  0  0  0  0
  1 11  1  0  0  0  0
  1 15  1  0  0  0  0
  2 10  1  0  0  0  0
  2 25  1  0  0  0  0
  3 16  1  0  0  0  0
  3 27  1  0  0  0  0
  4 21  1  0  0  0  0
  4 28  1  0  0  0  0
  5 22  1  0  0  0  0
  5 29  1  0  0  0  0
  6 23  1  0  0  0  0
  6 30  1  0  0  0  0
  7 24  1  0  0  0  0
  7 32  1  0  0  0  0
  8 25  2  0  0  0  0
  9 38  1  0  0  0  0
  9 39  1  0  0  0  0
 10 11  1  0  0  0  0
 10 12  1  0  0  0  0
 10 40  1  0  0  0  0
 11 14  1  0  0  0  0
 11 41  1  0  0  0  0
 12 13  1  0  0  0  0
 12 42  1  0  0  0  0
 12 43  1  0  0  0  0
 13 15  2  0  0  0  0
 13 16  1  0  0  0  0
 14 18  2  0  0  0  0
 14 19  1  0  0  0  0
 15 17  1  0  0  0  0
 16 20  2  0  0  0  0
 17 21  2  0  0  0  0
 17 44  1  0  0  0  0
 18 23  1  0  0  0  0
 18 45  1  0  0  0  0
 19 22  2  0  0  0  0
 19 46  1  0  0  0  0
 20 21  1  0  0  0  0
 20 47  1  0  0  0  0
 22 24  1  0  0  0  0
 23 24  2  0  0  0  0
 25 26  1  0  0  0  0
 26 31  2  0  0  0  0
 26 48  1  0  0  0  0
 27 49  1  0  0  0  0
 27 50  1  0  0  0  0
 27 51  1  0  0  0  0
 28 52  1  0  0  0  0
 28 53  1  0  0  0  0
 28 54  1  0  0  0  0
 29 55  1  0  0  0  0
 29 56  1  0  0  0  0
 29 57  1  0  0  0  0
 30 58  1  0  0  0  0
 30 59  1  0  0  0  0
 30 60  1  0  0  0  0
 31 33  1  0  0  0  0
 31 61  1  0  0  0  0
 32 62  1  0  0  0  0
 32 63  1  0  0  0  0
 32 64  1  0  0  0  0
 33 34  2  0  0  0  0
 33 35  1  0  0  0  0
 34 36  1  0  0  0  0
 34 65  1  0  0  0  0
 35 37  2  0  0  0  0
 35 66  1  0  0  0  0
 36 38  2  0  0  0  0
 36 67  1  0  0  0  0
 37 38  1  0  0  0  0
 37 68  1  0  0  0  0
 39 69  1  0  0  0  0
 39 70  1  0  0  0  0
 39 71  1  0  0  0  0
M  END
> <PUBCHEM_COMPOUND_CID>
122179374

> <PUBCHEM_CONFORMER_RMSD>
1.2

> <PUBCHEM_CONFORMER_DIVERSEORDER>
1
12
8
13
15
5
11
14
3
6
9
7
16
4
2
10

> <PUBCHEM_MMFF94_PARTIAL_CHARGES>
49
1 -0.36
10 0.28
11 0.42
12 0.14
13 -0.14
14 -0.14
15 0.08
16 0.08
17 -0.15
18 -0.15
19 -0.15
2 -0.43
20 -0.15
21 0.08
22 0.08
23 0.08
24 0.08
25 0.71
26 -0.14
27 0.28
28 0.28
29 0.28
3 -0.36
30 0.28
31 -0.18
32 0.28
33 0.03
34 -0.15
35 -0.15
36 -0.15
37 -0.15
38 0.08
39 0.28
4 -0.36
44 0.15
45 0.15
46 0.15
47 0.15
48 0.15
5 -0.36
6 -0.36
61 0.15
65 0.15
66 0.15
67 0.15
68 0.15
7 -0.36
8 -0.57
9 -0.36

> <PUBCHEM_EFFECTIVE_ROTOR_COUNT>
11.8

> <PUBCHEM_PHARMACOPHORE_FEATURES>
12
1 1 acceptor
1 3 acceptor
1 4 acceptor
1 5 acceptor
1 6 acceptor
1 7 acceptor
1 8 acceptor
1 9 acceptor
6 1 10 11 12 13 15 rings
6 13 15 16 17 20 21 rings
6 14 18 19 22 23 24 rings
6 33 34 35 36 37 38 rings

> <PUBCHEM_HEAVY_ATOM_COUNT>
39

> <PUBCHEM_ATOM_DEF_STEREO_COUNT>
2

> <PUBCHEM_ATOM_UDEF_STEREO_COUNT>
0

> <PUBCHEM_BOND_DEF_STEREO_COUNT>
1

> <PUBCHEM_BOND_UDEF_STEREO_COUNT>
0

> <PUBCHEM_ISOTOPIC_ATOM_COUNT>
0

> <PUBCHEM_COMPONENT_COUNT>
1

> <PUBCHEM_CACTVS_TAUTO_COUNT>
1

> <PUBCHEM_CONFORMER_ID>
07484F2E00000001

> <PUBCHEM_MMFF94_ENERGY>
171.2689

> <PUBCHEM_FEATURE_SELFOVERLAP>
60.944

> <PUBCHEM_SHAPE_FINGERPRINT>
10462674 125 17622711025555764618
11505856 67 17469052510316109613
11991303 11 18052276255862922348
12160290 23 17697894914004396370
14004853 49 18269834371357115155
14040221 178 17894641370181052261
14294032 229 17977114778885911192
14675020 138 18201422705810407936
15198563 99 17185329071107380052
15484559 13 18202567293130367852
17899979 129 18335998496791912437
18365409 1 18058712702580435278
19319366 153 18130494289203046569
20721686 124 18260547801359413090
21304303 282 17909811465026629922
21641784 216 16608877162511436028
23522609 53 17986693497772868993
3044373 193 18263922143201173781
34797466 226 18114182987614853873
3534868 343 18199191685576150777
376196 1 18041288750045840568
44802255 64 17393373001344759644
5219985 13 18190187964696059308
5223283 242 17544477458516545189
6677587 24 18115565120426859829
9658208 31 18055361490060372200
9831232 110 18123182404435820719

> <PUBCHEM_SHAPE_MULTIPOLES>
749.78
14.87
9.86
2.74
46.16
13.96
-0.44
-24.67
-3.16
-14.54
-2
-2.54
-0.89
-2.45

> <PUBCHEM_SHAPE_SELFOVERLAP>
1613.889

> <PUBCHEM_SHAPE_VOLUME>
414.9

> <PUBCHEM_COORDINATE_TYPE>
2
5
10

$$$$