101937463
  -OEChem-03242010103D

 43 45  0     1  0  0  0  0  0999 V2000
   -0.5350    1.9392   -0.0748 O   0  0  0  0  0  0  0  0  0  0  0  0
   -2.5019   -0.1425   -0.0406 O   0  0  0  0  0  0  0  0  0  0  0  0
    2.9007   -1.2028   -0.7299 O   0  0  0  0  0  0  0  0  0  0  0  0
   -4.7320   -0.3346   -0.5962 O   0  0  0  0  0  0  0  0  0  0  0  0
    4.5607   -2.7474   -1.0505 O   0  0  0  0  0  0  0  0  0  0  0  0
   -0.8258    1.1027   -1.2254 C   0  0  2  0  0  0  0  0  0  0  0  0
   -2.2895    0.6954   -1.1806 C   0  0  0  0  0  0  0  0  0  0  0  0
    0.1228   -0.1062   -1.2119 C   0  0  0  0  0  0  0  0  0  0  0  0
    1.1982    0.4473   -0.3609 C   0  0  0  0  0  0  0  0  0  0  0  0
    0.7461    1.5933    0.2714 C   0  0  0  0  0  0  0  0  0  0  0  0
   -2.6668   -0.1198   -2.4192 C   0  0  0  0  0  0  0  0  0  0  0  0
   -3.2003    1.9192   -1.0532 C   0  0  0  0  0  0  0  0  0  0  0  0
    2.4660   -0.0300   -0.0922 C   0  0  0  0  0  0  0  0  0  0  0  0
    1.5265    2.2887    1.1772 C   0  0  0  0  0  0  0  0  0  0  0  0
    3.2894    0.6487    0.8060 C   0  0  0  0  0  0  0  0  0  0  0  0
    2.8145    1.8105    1.4406 C   0  0  0  0  0  0  0  0  0  0  0  0
   -3.7815   -0.5899    0.1315 C   0  0  0  0  0  0  0  0  0  0  0  0
   -3.8526   -1.4507    1.3806 C   0  0  0  0  0  0  0  0  0  0  0  0
    4.6193    0.1210    1.0622 C   0  0  0  0  0  0  0  0  0  0  0  0
   -4.9018   -2.5482    1.2228 C   0  0  0  0  0  0  0  0  0  0  0  0
   -4.1555   -0.5763    2.5916 C   0  0  0  0  0  0  0  0  0  0  0  0
    4.1688   -1.7254   -0.4978 C   0  0  0  0  0  0  0  0  0  0  0  0
    5.0296   -0.9922    0.4494 C   0  0  0  0  0  0  0  0  0  0  0  0
   -0.6286    1.7190   -2.1149 H   0  0  0  0  0  0  0  0  0  0  0  0
    0.4620   -0.3566   -2.2213 H   0  0  0  0  0  0  0  0  0  0  0  0
   -0.2987   -0.9971   -0.7367 H   0  0  0  0  0  0  0  0  0  0  0  0
   -3.7407   -0.1740   -2.6177 H   0  0  0  0  0  0  0  0  0  0  0  0
   -2.3017   -1.1512   -2.3514 H   0  0  0  0  0  0  0  0  0  0  0  0
   -2.2321    0.3306   -3.3199 H   0  0  0  0  0  0  0  0  0  0  0  0
   -4.2415    1.7419   -1.3352 H   0  0  0  0  0  0  0  0  0  0  0  0
   -3.2075    2.3072   -0.0280 H   0  0  0  0  0  0  0  0  0  0  0  0
   -2.8555    2.7228   -1.7152 H   0  0  0  0  0  0  0  0  0  0  0  0
    1.1575    3.1815    1.6699 H   0  0  0  0  0  0  0  0  0  0  0  0
    3.4420    2.3488    2.1473 H   0  0  0  0  0  0  0  0  0  0  0  0
   -2.8800   -1.9403    1.5156 H   0  0  0  0  0  0  0  0  0  0  0  0
    5.2687    0.6435    1.7558 H   0  0  0  0  0  0  0  0  0  0  0  0
   -5.1194   -0.0667    2.4829 H   0  0  0  0  0  0  0  0  0  0  0  0
   -4.6946   -3.1579    0.3366 H   0  0  0  0  0  0  0  0  0  0  0  0
   -4.1849   -1.1736    3.5086 H   0  0  0  0  0  0  0  0  0  0  0  0
   -3.3889    0.1966    2.7147 H   0  0  0  0  0  0  0  0  0  0  0  0
   -4.9084   -3.2089    2.0959 H   0  0  0  0  0  0  0  0  0  0  0  0
   -5.9072   -2.1285    1.1068 H   0  0  0  0  0  0  0  0  0  0  0  0
    6.0203   -1.3923    0.6356 H   0  0  0  0  0  0  0  0  0  0  0  0
  1  6  1  0  0  0  0
  1 10  1  0  0  0  0
  2  7  1  0  0  0  0
  2 17  1  0  0  0  0
  3 13  1  0  0  0  0
  3 22  1  0  0  0  0
  4 17  2  0  0  0  0
  5 22  2  0  0  0  0
  6  7  1  0  0  0  0
  6  8  1  0  0  0  0
  6 24  1  0  0  0  0
  7 11  1  0  0  0  0
  7 12  1  0  0  0  0
  8  9  1  0  0  0  0
  8 25  1  0  0  0  0
  8 26  1  0  0  0  0
  9 10  2  0  0  0  0
  9 13  1  0  0  0  0
 10 14  1  0  0  0  0
 11 27  1  0  0  0  0
 11 28  1  0  0  0  0
 11 29  1  0  0  0  0
 12 30  1  0  0  0  0
 12 31  1  0  0  0  0
 12 32  1  0  0  0  0
 13 15  2  0  0  0  0
 14 16  2  0  0  0  0
 14 33  1  0  0  0  0
 15 16  1  0  0  0  0
 15 19  1  0  0  0  0
 16 34  1  0  0  0  0
 17 18  1  0  0  0  0
 18 20  1  0  0  0  0
 18 21  1  0  0  0  0
 18 35  1  0  0  0  0
 19 23  2  0  0  0  0
 19 36  1  0  0  0  0
 20 38  1  0  0  0  0
 20 41  1  0  0  0  0
 20 42  1  0  0  0  0
 21 37  1  0  0  0  0
 21 39  1  0  0  0  0
 21 40  1  0  0  0  0
 22 23  1  0  0  0  0
 23 43  1  0  0  0  0
M  END
> <PUBCHEM_COMPOUND_CID>
101937463

> <PUBCHEM_CONFORMER_RMSD>
0.8

> <PUBCHEM_CONFORMER_DIVERSEORDER>
1
24
31
33
14
29
13
36
32
30
12
26
20
25
5
18
10
35
15
22
28
8
23
7
19
16
34
4
3
2
21
11
6
17
27
37
9

> <PUBCHEM_MMFF94_PARTIAL_CHARGES>
23
1 -0.36
10 0.08
13 0.08
14 -0.15
15 0.03
16 -0.15
17 0.66
18 0.06
19 -0.18
2 -0.43
22 0.71
23 -0.14
3 -0.23
33 0.15
34 0.15
36 0.15
4 -0.57
43 0.15
5 -0.57
6 0.28
7 0.28
8 0.14
9 -0.14

> <PUBCHEM_EFFECTIVE_ROTOR_COUNT>
4.6

> <PUBCHEM_PHARMACOPHORE_FEATURES>
8
1 1 acceptor
1 4 acceptor
1 5 acceptor
3 18 20 21 hydrophobe
3 7 11 12 hydrophobe
5 1 6 8 9 10 rings
6 3 13 15 19 22 23 rings
6 9 10 13 14 15 16 rings

> <PUBCHEM_HEAVY_ATOM_COUNT>
23

> <PUBCHEM_ATOM_DEF_STEREO_COUNT>
1

> <PUBCHEM_ATOM_UDEF_STEREO_COUNT>
0

> <PUBCHEM_BOND_DEF_STEREO_COUNT>
0

> <PUBCHEM_BOND_UDEF_STEREO_COUNT>
0

> <PUBCHEM_ISOTOPIC_ATOM_COUNT>
0

> <PUBCHEM_COMPONENT_COUNT>
1

> <PUBCHEM_CACTVS_TAUTO_COUNT>
2

> <PUBCHEM_CONFORMER_ID>
0613713700000001

> <PUBCHEM_MMFF94_ENERGY>
76.4682

> <PUBCHEM_FEATURE_SELFOVERLAP>
40.724

> <PUBCHEM_SHAPE_FINGERPRINT>
10042902 136 17677905715170641883
10981352 41 18119257400848631867
11370993 144 18342744005223095561
11543360 7 16588027892312532916
11552529 35 17343776264476812135
11595378 159 15698283308601563915
11720765 8 9075514583681770929
11796584 16 18040990713654065434
12236239 1 16486965228398803621
12363563 72 17531811397790495627
12422481 6 16414368757825605850
12553582 1 17917989452288866900
12596602 18 16486963050750371930
12633257 1 18059586822898218395
12644460 14 18130783521033365648
12670546 177 12612753527277758745
12788726 201 15502923135547068405
12892183 10 17987245597968019353
13103583 49 18058752242027822115
13140716 1 17628330956656773728
13402501 40 18333735727547162475
13544653 18 18413387622722585748
13583140 156 18060418062468532561
13675066 3 18341040861368980436
13911882 115 18189058749464263264
13914758 101 17917992742656035745
14251751 18 17749379331290251538
14386348 63 18261105279402757227
14790565 3 17696452346397125304
14950920 106 17845664749745252379
15209294 21 15339120130243493249
15537594 2 17917991681440307542
15842332 3 16844155943036943245
16752209 62 16370995343508201617
17913733 40 17983289619572290872
18785283 64 18194959867289636328
19078846 21 15267335236996568402
193927 3 17894642469212755139
20645477 70 18128229286522815284
20681651 13 16915638458318181949
20739085 24 17632027381425996148
212916 134 13470685949262147700
21623969 137 18341608240024404178
221490 88 18413103936296867720
23557571 272 17895460467067210196
23559900 14 18040427815372348101
2838139 119 9799411070778403074
3459 39 13973416690486885587
3737641 26 17701551610659031446
38570 142 17128185154522219152
460360 51 17702957915620869924
4921388 177 17603865559743599413
5104073 3 17843671180950999082
5352402 22 18412548738173730082
5486654 36 18056767529123959840
59755656 215 18040707044666692499
602551 16 17603578647190378392
603831 33 14345786137122843717
7495541 125 18114178666444905976
8863177 126 18411140259626578014

> <PUBCHEM_SHAPE_MULTIPOLES>
443.98
11.19
2.43
1.92
0.12
0.54
0.2
7.84
2.63
-0.01
0.25
1.49
0.08
3.16

> <PUBCHEM_SHAPE_SELFOVERLAP>
962.311

> <PUBCHEM_SHAPE_VOLUME>
242.9

> <PUBCHEM_COORDINATE_TYPE>
2
5
10

$$$$