137649335
  -OEChem-03242010103D

 66 68  0     1  0  0  0  0  0999 V2000
   -4.3057   -2.7274    0.8618 S   0  0  0  0  0  0  0  0  0  0  0  0
   -0.1190    5.4898   -0.5657 F   0  0  0  0  0  0  0  0  0  0  0  0
    1.2132    3.9953    0.2829 F   0  0  0  0  0  0  0  0  0  0  0  0
   -5.0220    1.6387   -0.1022 O   0  0  0  0  0  0  0  0  0  0  0  0
    0.1409   -2.0320    2.4176 O   0  0  0  0  0  0  0  0  0  0  0  0
    4.0050    1.2144    1.8723 O   0  0  0  0  0  0  0  0  0  0  0  0
    4.1243   -1.6804   -1.9414 O   0  0  0  0  0  0  0  0  0  0  0  0
    5.2560    0.3577   -0.4454 O   0  0  0  0  0  0  0  0  0  0  0  0
   -2.7527    1.7268   -0.5701 N   0  0  0  0  0  0  0  0  0  0  0  0
   -2.5709   -0.9741    0.0879 N   0  0  0  0  0  0  0  0  0  0  0  0
   -0.3313   -2.5851    0.2177 N   0  0  0  0  0  0  0  0  0  0  0  0
   -2.7075    3.1300   -0.9127 C   0  0  0  0  0  0  0  0  0  0  0  0
   -2.4862    3.9907    0.3357 C   0  0  0  0  0  0  0  0  0  0  0  0
   -1.6495    3.4061   -1.9875 C   0  0  0  0  0  0  0  0  0  0  0  0
   -0.2216    3.3177   -1.4491 C   0  0  0  0  0  0  0  0  0  0  0  0
   -1.0586    3.8895    0.8715 C   0  0  0  0  0  0  0  0  0  0  0  0
   -0.0356    4.1804   -0.2128 C   0  0  0  0  0  0  0  0  0  0  0  0
   -3.9244    1.0943   -0.1890 C   0  0  0  0  0  0  0  0  0  0  0  0
   -1.6195   -3.2217    0.4865 C   0  0  2  0  0  0  0  0  0  0  0  0
   -1.7858   -4.4537   -0.4707 C   0  0  0  0  0  0  0  0  0  0  0  0
   -3.7988   -0.3451    0.1567 C   0  0  0  0  0  0  0  0  0  0  0  0
   -2.7182   -2.2326    0.4378 C   0  0  0  0  0  0  0  0  0  0  0  0
   -0.6256   -5.4524   -0.3506 C   0  0  0  0  0  0  0  0  0  0  0  0
   -1.9002   -4.0068   -1.9339 C   0  0  0  0  0  0  0  0  0  0  0  0
   -4.8579   -1.1326    0.5566 C   0  0  0  0  0  0  0  0  0  0  0  0
    0.4354   -2.0437    1.2253 C   0  0  0  0  0  0  0  0  0  0  0  0
    1.7048   -1.4099    0.7850 C   0  0  0  0  0  0  0  0  0  0  0  0
    2.3313   -1.8431   -0.3835 C   0  0  0  0  0  0  0  0  0  0  0  0
    2.2707   -0.3826    1.5399 C   0  0  0  0  0  0  0  0  0  0  0  0
    3.4632    0.2114    1.1264 C   0  0  0  0  0  0  0  0  0  0  0  0
    3.5237   -1.2492   -0.7971 C   0  0  0  0  0  0  0  0  0  0  0  0
    4.0897   -0.2219   -0.0422 C   0  0  0  0  0  0  0  0  0  0  0  0
    3.3010    1.5969    3.0524 C   0  0  0  0  0  0  0  0  0  0  0  0
    3.4800   -2.7348   -2.6536 C   0  0  0  0  0  0  0  0  0  0  0  0
    5.1518    1.4893   -1.3066 C   0  0  0  0  0  0  0  0  0  0  0  0
   -3.6872    3.3915   -1.3324 H   0  0  0  0  0  0  0  0  0  0  0  0
   -3.1918    3.7136    1.1280 H   0  0  0  0  0  0  0  0  0  0  0  0
   -2.6922    5.0389    0.0832 H   0  0  0  0  0  0  0  0  0  0  0  0
   -1.8096    4.4149   -2.3893 H   0  0  0  0  0  0  0  0  0  0  0  0
   -1.7660    2.7091   -2.8261 H   0  0  0  0  0  0  0  0  0  0  0  0
   -0.9300    4.6005    1.6956 H   0  0  0  0  0  0  0  0  0  0  0  0
    0.0345    2.2777   -1.2147 H   0  0  0  0  0  0  0  0  0  0  0  0
    0.4785    3.6406   -2.2282 H   0  0  0  0  0  0  0  0  0  0  0  0
   -0.8800    2.8914    1.2893 H   0  0  0  0  0  0  0  0  0  0  0  0
   -1.8843    1.1994   -0.5590 H   0  0  0  0  0  0  0  0  0  0  0  0
   -1.5696   -3.6153    1.5113 H   0  0  0  0  0  0  0  0  0  0  0  0
   -2.7080   -4.9864   -0.2068 H   0  0  0  0  0  0  0  0  0  0  0  0
   -0.5030   -5.7756    0.6883 H   0  0  0  0  0  0  0  0  0  0  0  0
   -2.7291   -3.3082   -2.0829 H   0  0  0  0  0  0  0  0  0  0  0  0
   -0.8227   -6.3437   -0.9560 H   0  0  0  0  0  0  0  0  0  0  0  0
   -2.0944   -4.8735   -2.5763 H   0  0  0  0  0  0  0  0  0  0  0  0
    0.3233   -5.0241   -0.6897 H   0  0  0  0  0  0  0  0  0  0  0  0
   -0.9837   -3.5345   -2.3006 H   0  0  0  0  0  0  0  0  0  0  0  0
   -0.0900   -2.4144   -0.7520 H   0  0  0  0  0  0  0  0  0  0  0  0
   -5.8978   -0.8658    0.6828 H   0  0  0  0  0  0  0  0  0  0  0  0
    1.8924   -2.6719   -0.9244 H   0  0  0  0  0  0  0  0  0  0  0  0
    1.7403   -0.0779    2.4355 H   0  0  0  0  0  0  0  0  0  0  0  0
    2.3125    2.0069    2.8177 H   0  0  0  0  0  0  0  0  0  0  0  0
    3.2535    0.7782    3.7786 H   0  0  0  0  0  0  0  0  0  0  0  0
    3.8744    2.4033    3.5215 H   0  0  0  0  0  0  0  0  0  0  0  0
    4.0885   -2.9415   -3.5403 H   0  0  0  0  0  0  0  0  0  0  0  0
    3.4519   -3.6601   -2.0678 H   0  0  0  0  0  0  0  0  0  0  0  0
    2.4896   -2.4354   -3.0136 H   0  0  0  0  0  0  0  0  0  0  0  0
    6.1619    1.8399   -1.5354 H   0  0  0  0  0  0  0  0  0  0  0  0
    4.6037    2.2992   -0.8147 H   0  0  0  0  0  0  0  0  0  0  0  0
    4.6560    1.2161   -2.2434 H   0  0  0  0  0  0  0  0  0  0  0  0
  1 22  1  0  0  0  0
  1 25  1  0  0  0  0
  2 17  1  0  0  0  0
  3 17  1  0  0  0  0
  4 18  2  0  0  0  0
  5 26  2  0  0  0  0
  6 30  1  0  0  0  0
  6 33  1  0  0  0  0
  7 31  1  0  0  0  0
  7 34  1  0  0  0  0
  8 32  1  0  0  0  0
  8 35  1  0  0  0  0
  9 12  1  0  0  0  0
  9 18  1  0  0  0  0
  9 45  1  0  0  0  0
 10 21  1  0  0  0  0
 10 22  2  0  0  0  0
 11 19  1  0  0  0  0
 11 26  1  0  0  0  0
 11 54  1  0  0  0  0
 12 13  1  0  0  0  0
 12 14  1  0  0  0  0
 12 36  1  0  0  0  0
 13 16  1  0  0  0  0
 13 37  1  0  0  0  0
 13 38  1  0  0  0  0
 14 15  1  0  0  0  0
 14 39  1  0  0  0  0
 14 40  1  0  0  0  0
 15 17  1  0  0  0  0
 15 42  1  0  0  0  0
 15 43  1  0  0  0  0
 16 17  1  0  0  0  0
 16 41  1  0  0  0  0
 16 44  1  0  0  0  0
 18 21  1  0  0  0  0
 19 20  1  0  0  0  0
 19 22  1  0  0  0  0
 19 46  1  0  0  0  0
 20 23  1  0  0  0  0
 20 24  1  0  0  0  0
 20 47  1  0  0  0  0
 21 25  2  0  0  0  0
 23 48  1  0  0  0  0
 23 50  1  0  0  0  0
 23 52  1  0  0  0  0
 24 49  1  0  0  0  0
 24 51  1  0  0  0  0
 24 53  1  0  0  0  0
 25 55  1  0  0  0  0
 26 27  1  0  0  0  0
 27 28  2  0  0  0  0
 27 29  1  0  0  0  0
 28 31  1  0  0  0  0
 28 56  1  0  0  0  0
 29 30  2  0  0  0  0
 29 57  1  0  0  0  0
 30 32  1  0  0  0  0
 31 32  2  0  0  0  0
 33 58  1  0  0  0  0
 33 59  1  0  0  0  0
 33 60  1  0  0  0  0
 34 61  1  0  0  0  0
 34 62  1  0  0  0  0
 34 63  1  0  0  0  0
 35 64  1  0  0  0  0
 35 65  1  0  0  0  0
 35 66  1  0  0  0  0
M  END
> <PUBCHEM_COMPOUND_CID>
137649335

> <PUBCHEM_CONFORMER_RMSD>
1.2

> <PUBCHEM_CONFORMER_DIVERSEORDER>
7
196
119
199
81
162
67
58
25
157
124
41
87
176
77
10
174
144
20
98
195
115
21
154
73
166
53
42
179
14
147
142
100
65
93
113
136
116
23
192
60
90
164
204
180
149
74
44
56
121
26
95
85
57
64
78
32
194
92
134
9
178
72
106
27
188
86
111
91
138
99
128
117
177
19
45
203
143
62
97
112
193
71
75
48
12
182
24
153
159
183
96
38
89
36
59
173
66
79
187
167
104
55
200
158
49
52
54
150
46
1
201
33
18
197
156
145
155
76
189
94
107
122
28
83
161
70
109
185
13
105
63
135
88
152
2
181
191
148
4
84
146
110
168
68
5
108
133
175
37
131
151
103
170
40
39
120
165
82
141
6
198
43
15
160
172
3
123
51
8
125
50
29
61
127
47
34
31
171
202
169
16
11
140
22
17
126
129
163
130
186
118
80
132
139
101
69
35
184
102
114
137
190
30

> <PUBCHEM_MMFF94_PARTIAL_CHARGES>
33
1 -0.08
10 -0.57
11 -0.73
12 0.3
17 0.68
18 0.72
19 0.48
2 -0.34
21 0.14
22 0.2
25 -0.11
26 0.54
27 0.09
28 -0.15
29 -0.15
3 -0.34
30 0.08
31 0.08
32 0.08
33 0.28
34 0.28
35 0.28
4 -0.57
45 0.37
5 -0.57
54 0.37
55 0.15
56 0.15
57 0.15
6 -0.36
7 -0.36
8 -0.36
9 -0.73

> <PUBCHEM_EFFECTIVE_ROTOR_COUNT>
12.2

> <PUBCHEM_PHARMACOPHORE_FEATURES>
12
1 10 acceptor
1 11 donor
1 4 acceptor
1 5 acceptor
1 6 acceptor
1 7 acceptor
1 8 acceptor
1 9 donor
3 20 23 24 hydrophobe
5 1 10 21 22 25 rings
6 12 13 14 15 16 17 rings
6 27 28 29 30 31 32 rings

> <PUBCHEM_HEAVY_ATOM_COUNT>
35

> <PUBCHEM_ATOM_DEF_STEREO_COUNT>
0

> <PUBCHEM_ATOM_UDEF_STEREO_COUNT>
1

> <PUBCHEM_BOND_DEF_STEREO_COUNT>
0

> <PUBCHEM_BOND_UDEF_STEREO_COUNT>
0

> <PUBCHEM_ISOTOPIC_ATOM_COUNT>
0

> <PUBCHEM_COMPONENT_COUNT>
1

> <PUBCHEM_CACTVS_TAUTO_COUNT>
-1

> <PUBCHEM_CONFORMER_ID>
08345CB700000007

> <PUBCHEM_MMFF94_ENERGY>
95.3446

> <PUBCHEM_FEATURE_SELFOVERLAP>
60.908

> <PUBCHEM_SHAPE_FINGERPRINT>
10670039 82 18188217476887457678
11059048 146 17618791258065431725
11285246 1 17193225287514962022
12156800 1 16482524241169029073
12788726 201 18260270784779963648
13122387 1 18119240916336394145
13165054 235 17404558457303671663
13761468 95 18114176381205781278
14114211 80 18270409282842129905
15001296 14 18114756961710263149
151778 21 16968303613468841473
15297060 5 18197788708316803576
15961568 22 17761763366744829056
15975801 100 17100047213221134326
161222 10 17900289449406658932
17977149 70 18267309737835287816
19319366 153 17676200239322884715
19930381 70 16608292234951780895
20764821 26 18048859815448142505
21033648 29 18202277026735294059
21033650 10 18115613494812637150
21860390 5 17615962653229167766
21987440 362 17471274168798163494
23536364 44 17338171706012826782
25265897 201 17696512750246879671
6287921 2 17910112752355375467
6371009 1 17469298367735104539

> <PUBCHEM_SHAPE_MULTIPOLES>
665.3
9.49
8.09
2.08
3.96
3.95
0.24
-1.46
-0.26
-5.25
-2.82
2.38
-0.33
1.92

> <PUBCHEM_SHAPE_SELFOVERLAP>
1385.926

> <PUBCHEM_SHAPE_VOLUME>
382.8

> <PUBCHEM_COORDINATE_TYPE>
2
5
10

$$$$