137641298
  -OEChem-03242010103D

 56 58  0     0  0  0  0  0  0999 V2000
   -5.7372   -0.2511   -1.3188 Br  0  0  0  0  0  0  0  0  0  0  0  0
    0.0029   -0.2611    2.9153 O   0  0  0  0  0  0  0  0  0  0  0  0
    2.9906   -1.8715    0.2938 O   0  0  0  0  0  0  0  0  0  0  0  0
   -0.2979    3.3588    0.6130 O   0  0  0  0  0  0  0  0  0  0  0  0
    1.3429   -2.6834   -1.1154 O   0  0  0  0  0  0  0  0  0  0  0  0
   -1.8258    2.3341   -0.7923 O   0  0  0  0  0  0  0  0  0  0  0  0
    2.6604    1.7109   -1.7826 N   0  0  0  0  0  0  0  0  0  0  0  0
   -1.1155   -0.9371    2.4427 N   0  0  0  0  0  0  0  0  0  0  0  0
    0.4823    0.2682   -0.6907 C   0  0  0  0  0  0  0  0  0  0  0  0
    1.8420   -0.3691   -1.0042 C   0  0  0  0  0  0  0  0  0  0  0  0
    0.4797    1.7897   -0.8685 C   0  0  0  0  0  0  0  0  0  0  0  0
    0.0662   -0.0815    0.6939 C   0  0  0  0  0  0  0  0  0  0  0  0
    2.8479    0.3585   -1.5414 C   0  0  0  0  0  0  0  0  0  0  0  0
    1.5337    2.4315   -1.4209 C   0  0  0  0  0  0  0  0  0  0  0  0
   -1.0563   -0.8162    1.1135 C   0  0  0  0  0  0  0  0  0  0  0  0
    0.6985    0.2440    1.8645 C   0  0  0  0  0  0  0  0  0  0  0  0
   -0.7003    2.5110   -0.3642 C   0  0  0  0  0  0  0  0  0  0  0  0
    2.0074   -1.7842   -0.6345 C   0  0  0  0  0  0  0  0  0  0  0  0
    1.6127    3.9104   -1.6874 C   0  0  0  0  0  0  0  0  0  0  0  0
    4.2027   -0.1725   -1.9247 C   0  0  0  0  0  0  0  0  0  0  0  0
   -2.0742   -1.4066    0.2844 C   0  0  0  0  0  0  0  0  0  0  0  0
    1.9189    0.9937    2.1904 C   0  0  0  0  0  0  0  0  0  0  0  0
   -3.2112   -0.6727   -0.0541 C   0  0  0  0  0  0  0  0  0  0  0  0
   -1.9231   -2.7129   -0.1811 C   0  0  0  0  0  0  0  0  0  0  0  0
    3.2715   -3.1962    0.7577 C   0  0  0  0  0  0  0  0  0  0  0  0
   -1.3406    4.1386    1.2075 C   0  0  0  0  0  0  0  0  0  0  0  0
   -4.1969   -1.2448   -0.8583 C   0  0  0  0  0  0  0  0  0  0  0  0
   -2.9090   -3.2851   -0.9850 C   0  0  0  0  0  0  0  0  0  0  0  0
   -4.0457   -2.5511   -1.3239 C   0  0  0  0  0  0  0  0  0  0  0  0
    4.3836   -3.1341    1.7829 C   0  0  0  0  0  0  0  0  0  0  0  0
   -1.9100    3.3817    2.3886 C   0  0  0  0  0  0  0  0  0  0  0  0
   -0.2359   -0.1396   -1.4149 H   0  0  0  0  0  0  0  0  0  0  0  0
    3.4350    2.2254   -2.1868 H   0  0  0  0  0  0  0  0  0  0  0  0
    4.4696    0.1602   -2.9341 H   0  0  0  0  0  0  0  0  0  0  0  0
    4.2475   -1.2652   -1.9333 H   0  0  0  0  0  0  0  0  0  0  0  0
    4.9631    0.1967   -1.2288 H   0  0  0  0  0  0  0  0  0  0  0  0
    2.3096    4.3832   -0.9878 H   0  0  0  0  0  0  0  0  0  0  0  0
    0.6454    4.4135   -1.6014 H   0  0  0  0  0  0  0  0  0  0  0  0
    1.9714    4.0937   -2.7065 H   0  0  0  0  0  0  0  0  0  0  0  0
    1.8604    2.0218    1.8232 H   0  0  0  0  0  0  0  0  0  0  0  0
    2.8011    0.5206    1.7508 H   0  0  0  0  0  0  0  0  0  0  0  0
    2.0769    1.0409    3.2729 H   0  0  0  0  0  0  0  0  0  0  0  0
   -3.3342    0.3429    0.3161 H   0  0  0  0  0  0  0  0  0  0  0  0
   -1.0481   -3.3024    0.0804 H   0  0  0  0  0  0  0  0  0  0  0  0
   -0.8891    5.0755    1.5493 H   0  0  0  0  0  0  0  0  0  0  0  0
   -2.1194    4.3996    0.4820 H   0  0  0  0  0  0  0  0  0  0  0  0
    2.3704   -3.6214    1.2139 H   0  0  0  0  0  0  0  0  0  0  0  0
    3.5812   -3.8211   -0.0875 H   0  0  0  0  0  0  0  0  0  0  0  0
   -2.7922   -4.3028   -1.3458 H   0  0  0  0  0  0  0  0  0  0  0  0
   -4.8044   -3.0119   -1.9512 H   0  0  0  0  0  0  0  0  0  0  0  0
    5.2858   -2.6937    1.3459 H   0  0  0  0  0  0  0  0  0  0  0  0
    4.0950   -2.4966    2.6253 H   0  0  0  0  0  0  0  0  0  0  0  0
    4.6241   -4.1318    2.1605 H   0  0  0  0  0  0  0  0  0  0  0  0
   -2.3646    2.4387    2.0681 H   0  0  0  0  0  0  0  0  0  0  0  0
   -1.1192    3.1265    3.1018 H   0  0  0  0  0  0  0  0  0  0  0  0
   -2.6694    3.9776    2.9025 H   0  0  0  0  0  0  0  0  0  0  0  0
  1 27  1  0  0  0  0
  2  8  1  0  0  0  0
  2 16  1  0  0  0  0
  3 18  1  0  0  0  0
  3 25  1  0  0  0  0
  4 17  1  0  0  0  0
  4 26  1  0  0  0  0
  5 18  2  0  0  0  0
  6 17  2  0  0  0  0
  7 13  1  0  0  0  0
  7 14  1  0  0  0  0
  7 33  1  0  0  0  0
  8 15  2  0  0  0  0
  9 10  1  0  0  0  0
  9 11  1  0  0  0  0
  9 12  1  0  0  0  0
  9 32  1  0  0  0  0
 10 13  2  0  0  0  0
 10 18  1  0  0  0  0
 11 14  2  0  0  0  0
 11 17  1  0  0  0  0
 12 15  1  0  0  0  0
 12 16  2  0  0  0  0
 13 20  1  0  0  0  0
 14 19  1  0  0  0  0
 15 21  1  0  0  0  0
 16 22  1  0  0  0  0
 19 37  1  0  0  0  0
 19 38  1  0  0  0  0
 19 39  1  0  0  0  0
 20 34  1  0  0  0  0
 20 35  1  0  0  0  0
 20 36  1  0  0  0  0
 21 23  2  0  0  0  0
 21 24  1  0  0  0  0
 22 40  1  0  0  0  0
 22 41  1  0  0  0  0
 22 42  1  0  0  0  0
 23 27  1  0  0  0  0
 23 43  1  0  0  0  0
 24 28  2  0  0  0  0
 24 44  1  0  0  0  0
 25 30  1  0  0  0  0
 25 47  1  0  0  0  0
 25 48  1  0  0  0  0
 26 31  1  0  0  0  0
 26 45  1  0  0  0  0
 26 46  1  0  0  0  0
 27 29  2  0  0  0  0
 28 29  1  0  0  0  0
 28 49  1  0  0  0  0
 29 50  1  0  0  0  0
 30 51  1  0  0  0  0
 30 52  1  0  0  0  0
 30 53  1  0  0  0  0
 31 54  1  0  0  0  0
 31 55  1  0  0  0  0
 31 56  1  0  0  0  0
M  END
> <PUBCHEM_COMPOUND_CID>
137641298

> <PUBCHEM_CONFORMER_RMSD>
1

> <PUBCHEM_CONFORMER_DIVERSEORDER>
4
22
16
20
11
9
7
23
19
17
27
1
10
28
18
24
3
26
5
21
12
15
25
13
14
6
8
2

> <PUBCHEM_MMFF94_PARTIAL_CHARGES>
34
1 -0.11
10 -0.12
11 -0.12
12 -0.18
13 -0.04
14 -0.04
15 0.23
16 -0.04
17 0.71
18 0.71
19 0.14
2 -0.02
20 0.14
21 0.05
22 0.18
23 -0.15
24 -0.15
25 0.28
26 0.28
27 0.11
28 -0.15
29 -0.15
3 -0.43
33 0.4
4 -0.43
43 0.15
44 0.15
49 0.15
5 -0.57
50 0.15
6 -0.57
7 -0.6
8 -0.41
9 0.46

> <PUBCHEM_EFFECTIVE_ROTOR_COUNT>
8.4

> <PUBCHEM_PHARMACOPHORE_FEATURES>
9
1 1 hydrophobe
1 5 acceptor
1 6 acceptor
1 7 cation
1 7 donor
1 8 acceptor
5 2 8 12 15 16 rings
6 21 23 24 27 28 29 rings
6 7 9 10 11 13 14 rings

> <PUBCHEM_HEAVY_ATOM_COUNT>
31

> <PUBCHEM_ATOM_DEF_STEREO_COUNT>
0

> <PUBCHEM_ATOM_UDEF_STEREO_COUNT>
0

> <PUBCHEM_BOND_DEF_STEREO_COUNT>
0

> <PUBCHEM_BOND_UDEF_STEREO_COUNT>
0

> <PUBCHEM_ISOTOPIC_ATOM_COUNT>
0

> <PUBCHEM_COMPONENT_COUNT>
1

> <PUBCHEM_CACTVS_TAUTO_COUNT>
-1

> <PUBCHEM_CONFORMER_ID>
08343D5200000004

> <PUBCHEM_MMFF94_ENERGY>
64.1233

> <PUBCHEM_FEATURE_SELFOVERLAP>
45.671

> <PUBCHEM_SHAPE_FINGERPRINT>
10764073 3 17543853184307967505
10930396 42 17764564901531472064
11578080 2 17846505841385227696
11582403 64 16964334939048662368
11725454 13 17034709172194504933
12156800 1 16376025467550489932
12788726 201 18340494361208764127
13004483 165 18117819041812450834
13140716 1 17831055611766379552
13636023 20 18056193819903000311
13911987 19 17248690512202569806
20600515 1 17757224337826680153
22393880 68 18123195859503191127
23419403 2 18053347017011241010
23559900 14 18128246995058403767
238 59 17616825769471869797
35225 105 16897020195801722343
57527293 21 13972316130860176204
57527295 17 18040720319856892031
5895379 119 18336531790406877533
70251023 43 18197806420893495902
9981440 41 17538562514595477129

> <PUBCHEM_SHAPE_MULTIPOLES>
604.6
7.39
5.22
2.47
6.02
2.88
-1.28
-6.16
3.43
-1
-0.69
-1.2
0.93
-2.78

> <PUBCHEM_SHAPE_SELFOVERLAP>
1279.453

> <PUBCHEM_SHAPE_VOLUME>
346.2

> <PUBCHEM_COORDINATE_TYPE>
2
5
10

$$$$