127028060
  -OEChem-03242010103D

 51 53  0     0  0  0  0  0  0999 V2000
    1.4674   -0.2221   -0.2241 O   0  0  0  0  0  0  0  0  0  0  0  0
    6.2994   -0.5406   -0.0126 O   0  0  0  0  0  0  0  0  0  0  0  0
   -5.8674    0.4820    2.0701 O   0  0  0  0  0  0  0  0  0  0  0  0
    4.1462    3.6925   -0.0283 O   0  0  0  0  0  0  0  0  0  0  0  0
   -7.0111    1.3034   -0.3262 O   0  0  0  0  0  0  0  0  0  0  0  0
    4.7206   -2.6653   -0.1266 O   0  0  0  0  0  0  0  0  0  0  0  0
    0.0463   -2.0540   -0.3227 N   0  0  0  0  0  0  0  0  0  0  0  0
   -2.3973   -1.9769   -0.3565 C   0  0  0  0  0  0  0  0  0  0  0  0
   -1.0947   -1.1780   -0.3564 C   0  0  0  0  0  0  0  0  0  0  0  0
   -3.6279   -1.1032   -0.3451 C   0  0  0  0  0  0  0  0  0  0  0  0
    1.3352   -1.6056   -0.2567 C   0  0  0  0  0  0  0  0  0  0  0  0
    3.8839   -0.4437   -0.1197 C   0  0  0  0  0  0  0  0  0  0  0  0
    2.7232    0.3255   -0.1570 C   0  0  0  0  0  0  0  0  0  0  0  0
   -4.1913   -0.7078    0.8681 C   0  0  0  0  0  0  0  0  0  0  0  0
    3.7610   -1.9074   -0.1544 C   0  0  0  0  0  0  0  0  0  0  0  0
    2.3873   -2.4407   -0.2261 C   0  0  0  0  0  0  0  0  0  0  0  0
   -4.2011   -0.6902   -1.5477 C   0  0  0  0  0  0  0  0  0  0  0  0
    5.1373    0.1688   -0.0513 C   0  0  0  0  0  0  0  0  0  0  0  0
    2.8096    1.7178   -0.1262 C   0  0  0  0  0  0  0  0  0  0  0  0
   -5.3280    0.1007    0.8788 C   0  0  0  0  0  0  0  0  0  0  0  0
    4.0593    2.3344   -0.0581 C   0  0  0  0  0  0  0  0  0  0  0  0
   -5.9013    0.5136   -0.3239 C   0  0  0  0  0  0  0  0  0  0  0  0
    5.2206    1.5614   -0.0205 C   0  0  0  0  0  0  0  0  0  0  0  0
   -5.3379    0.1181   -1.5371 C   0  0  0  0  0  0  0  0  0  0  0  0
    6.7951   -0.9029    1.2749 C   0  0  0  0  0  0  0  0  0  0  0  0
   -5.2203    0.0165    3.2530 C   0  0  0  0  0  0  0  0  0  0  0  0
    2.9207    4.4222   -0.0696 C   0  0  0  0  0  0  0  0  0  0  0  0
   -7.5348    1.6813   -1.5981 C   0  0  0  0  0  0  0  0  0  0  0  0
   -2.4292   -2.6382   -1.2329 H   0  0  0  0  0  0  0  0  0  0  0  0
   -2.4233   -2.6513    0.5101 H   0  0  0  0  0  0  0  0  0  0  0  0
   -1.0530   -0.5444   -1.2514 H   0  0  0  0  0  0  0  0  0  0  0  0
   -1.0793   -0.5117    0.5157 H   0  0  0  0  0  0  0  0  0  0  0  0
   -0.0984   -3.0582   -0.3551 H   0  0  0  0  0  0  0  0  0  0  0  0
   -3.6998   -1.0574    1.7698 H   0  0  0  0  0  0  0  0  0  0  0  0
    2.2674   -3.5184   -0.2523 H   0  0  0  0  0  0  0  0  0  0  0  0
   -3.7689   -0.9908   -2.4986 H   0  0  0  0  0  0  0  0  0  0  0  0
    1.8734    2.2653   -0.1578 H   0  0  0  0  0  0  0  0  0  0  0  0
    6.1916    2.0481    0.0318 H   0  0  0  0  0  0  0  0  0  0  0  0
   -5.7283    0.4006   -2.5087 H   0  0  0  0  0  0  0  0  0  0  0  0
    7.6028   -1.6275    1.1398 H   0  0  0  0  0  0  0  0  0  0  0  0
    6.0142   -1.3586    1.8921 H   0  0  0  0  0  0  0  0  0  0  0  0
    7.1983   -0.0200    1.7806 H   0  0  0  0  0  0  0  0  0  0  0  0
   -5.7827    0.4133    4.1047 H   0  0  0  0  0  0  0  0  0  0  0  0
   -4.2007    0.4080    3.3363 H   0  0  0  0  0  0  0  0  0  0  0  0
   -5.2566   -1.0755    3.3303 H   0  0  0  0  0  0  0  0  0  0  0  0
    2.3820    4.2518   -1.0080 H   0  0  0  0  0  0  0  0  0  0  0  0
    2.3001    4.2172    0.8093 H   0  0  0  0  0  0  0  0  0  0  0  0
    3.1772    5.4862   -0.0378 H   0  0  0  0  0  0  0  0  0  0  0  0
   -8.4145    2.3062   -1.4115 H   0  0  0  0  0  0  0  0  0  0  0  0
   -7.8783    0.8111   -2.1678 H   0  0  0  0  0  0  0  0  0  0  0  0
   -6.8232    2.2944   -2.1615 H   0  0  0  0  0  0  0  0  0  0  0  0
  1 11  1  0  0  0  0
  1 13  1  0  0  0  0
  2 18  1  0  0  0  0
  2 25  1  0  0  0  0
  3 20  1  0  0  0  0
  3 26  1  0  0  0  0
  4 21  1  0  0  0  0
  4 27  1  0  0  0  0
  5 22  1  0  0  0  0
  5 28  1  0  0  0  0
  6 15  2  0  0  0  0
  7  9  1  0  0  0  0
  7 11  1  0  0  0  0
  7 33  1  0  0  0  0
  8  9  1  0  0  0  0
  8 10  1  0  0  0  0
  8 29  1  0  0  0  0
  8 30  1  0  0  0  0
  9 31  1  0  0  0  0
  9 32  1  0  0  0  0
 10 14  2  0  0  0  0
 10 17  1  0  0  0  0
 11 16  2  0  0  0  0
 12 13  2  0  0  0  0
 12 15  1  0  0  0  0
 12 18  1  0  0  0  0
 13 19  1  0  0  0  0
 14 20  1  0  0  0  0
 14 34  1  0  0  0  0
 15 16  1  0  0  0  0
 16 35  1  0  0  0  0
 17 24  2  0  0  0  0
 17 36  1  0  0  0  0
 18 23  2  0  0  0  0
 19 21  2  0  0  0  0
 19 37  1  0  0  0  0
 20 22  2  0  0  0  0
 21 23  1  0  0  0  0
 22 24  1  0  0  0  0
 23 38  1  0  0  0  0
 24 39  1  0  0  0  0
 25 40  1  0  0  0  0
 25 41  1  0  0  0  0
 25 42  1  0  0  0  0
 26 43  1  0  0  0  0
 26 44  1  0  0  0  0
 26 45  1  0  0  0  0
 27 46  1  0  0  0  0
 27 47  1  0  0  0  0
 27 48  1  0  0  0  0
 28 49  1  0  0  0  0
 28 50  1  0  0  0  0
 28 51  1  0  0  0  0
M  END
> <PUBCHEM_COMPOUND_CID>
127028060

> <PUBCHEM_CONFORMER_RMSD>
1

> <PUBCHEM_CONFORMER_DIVERSEORDER>
1
9
99
16
6
20
65
90
78
94
95
101
49
72
89
54
43
80
23
83
84
27
38
12
100
102
33
93
52
58
63
28
39
59
87
79
91
75
88
82
5
14
22
26
61
53
47
51
71
67
34
4
45
17
55
60
46
35
21
73
98
44
15
66
3
70
37
42
48
85
57
97
25
41
32
81
2
69
68
56
29
104
31
18
8
103
77
92
10
50
76
24
36
64
86
40
13
74
19
7
62
96
11
30

> <PUBCHEM_MMFF94_PARTIAL_CHARGES>
35
1 -0.16
10 -0.14
11 0.18
12 0.09
13 0.08
14 -0.15
15 0.47
16 -0.14
17 -0.15
18 0.08
19 -0.15
2 -0.36
20 0.08
21 0.08
22 0.08
23 -0.15
24 -0.15
25 0.28
26 0.28
27 0.28
28 0.28
3 -0.36
33 0.4
34 0.15
35 0.15
36 0.15
37 0.15
38 0.15
39 0.15
4 -0.36
5 -0.36
6 -0.57
7 -0.87
8 0.14
9 0.37

> <PUBCHEM_EFFECTIVE_ROTOR_COUNT>
8

> <PUBCHEM_PHARMACOPHORE_FEATURES>
11
1 1 acceptor
1 2 acceptor
1 3 acceptor
1 4 acceptor
1 5 acceptor
1 6 acceptor
1 7 cation
1 7 donor
6 1 11 12 13 15 16 rings
6 10 14 17 20 22 24 rings
6 12 13 18 19 21 23 rings

> <PUBCHEM_HEAVY_ATOM_COUNT>
28

> <PUBCHEM_ATOM_DEF_STEREO_COUNT>
0

> <PUBCHEM_ATOM_UDEF_STEREO_COUNT>
0

> <PUBCHEM_BOND_DEF_STEREO_COUNT>
0

> <PUBCHEM_BOND_UDEF_STEREO_COUNT>
0

> <PUBCHEM_ISOTOPIC_ATOM_COUNT>
0

> <PUBCHEM_COMPONENT_COUNT>
1

> <PUBCHEM_CACTVS_TAUTO_COUNT>
9

> <PUBCHEM_CONFORMER_ID>
07924B5C00000001

> <PUBCHEM_MMFF94_ENERGY>
114.9604

> <PUBCHEM_FEATURE_SELFOVERLAP>
55.865

> <PUBCHEM_SHAPE_FINGERPRINT>
10 15 17749113300530555487
10319926 262 16733273400133206747
10411042 1 18050846625303743214
10763959 59 18334010601248394348
11089746 13 17489866059482105170
12422481 6 17822572810685754293
13878862 14 18337934745336592989
13944108 23 18335706066134157188
14556957 393 17489585620505655809
14848178 96 18270114754847798905
15064981 194 17774441698592499207
15081414 286 18412269415497945702
15142383 8 18114177502297713846
15183329 4 18202847647067372934
15348495 7 18113904900396558363
15419008 145 18189321386836200648
15419008 47 17822290137497505764
15483637 11 18121497947252045092
16087824 20 18410289191130833276
1768 23 17488209074469234859
18335252 114 18339350890411209966
18470217 77 17313381305826154701
20511986 3 17988912414234571710
20715895 44 18413103987604093906
21033648 29 17675926504056504247
21033650 10 15123520185916095619
21298829 104 18272368720105866144
21315763 76 18273494572409138465
22122407 14 18338804408259511753
22393880 68 12535358865755784527
24771293 8 18129648817044446274
2838139 119 18410285922280406375
312425 54 16298385739072952835
3178227 256 18186519904687009314
397830 11 17895769516071181475
4073 2 18040999595631168099
4435113 14 17458634474951515845
44880568 143 14189582935596810395
5104073 3 18190176970138886194
57724786 102 18342468040604996939
58902169 19 17988347209708333007
6371009 1 18201717332066298457
6608658 132 16988848242411951329

> <PUBCHEM_SHAPE_MULTIPOLES>
536.03
20.78
3.43
1.55
17.29
3.45
-1.35
6.45
-1.61
-5.87
0.48
4.31
0.08
0.34

> <PUBCHEM_SHAPE_SELFOVERLAP>
1150.502

> <PUBCHEM_SHAPE_VOLUME>
299.2

> <PUBCHEM_COORDINATE_TYPE>
2
5
10

$$$$