127028361
  -OEChem-03242010103D

 49 51  0     0  0  0  0  0  0999 V2000
   -4.8964   -2.1871   -0.1473 O   0  0  0  0  0  0  0  0  0  0  0  0
    0.2511    0.8382   -0.2298 O   0  0  0  0  0  0  0  0  0  0  0  0
    4.9265   -0.2876    0.3767 O   0  0  0  0  0  0  0  0  0  0  0  0
    1.6300   -3.6938    0.0817 O   0  0  0  0  0  0  0  0  0  0  0  0
    4.0593    2.2094    0.1941 O   0  0  0  0  0  0  0  0  0  0  0  0
   -4.0073    0.5086    0.0629 N   0  0  0  0  0  0  0  0  0  0  0  0
   -0.5530    3.0087   -0.3971 N   0  0  0  0  0  0  0  0  0  0  0  0
   -4.0054    1.8270    0.6934 C   0  0  0  0  0  0  0  0  0  0  0  0
   -5.3437    0.1781   -0.4514 C   0  0  0  0  0  0  0  0  0  0  0  0
   -3.5630   -0.5233    1.0099 C   0  0  0  0  0  0  0  0  0  0  0  0
   -2.5742    2.3543    0.8127 C   0  0  0  0  0  0  0  0  0  0  0  0
   -5.3241   -1.2063   -1.0931 C   0  0  0  0  0  0  0  0  0  0  0  0
   -3.5846   -1.8908    0.3331 C   0  0  0  0  0  0  0  0  0  0  0  0
   -1.8943    2.5096   -0.5459 C   0  0  0  0  0  0  0  0  0  0  0  0
    0.5360    2.1990   -0.2379 C   0  0  0  0  0  0  0  0  0  0  0  0
    2.6077    0.3348    0.0740 C   0  0  0  0  0  0  0  0  0  0  0  0
    1.2792   -0.0565   -0.0760 C   0  0  0  0  0  0  0  0  0  0  0  0
    1.7809    2.6853   -0.1005 C   0  0  0  0  0  0  0  0  0  0  0  0
    2.9251    1.7692    0.0686 C   0  0  0  0  0  0  0  0  0  0  0  0
    3.6144   -0.6214    0.2269 C   0  0  0  0  0  0  0  0  0  0  0  0
    0.9484   -1.4119   -0.0738 C   0  0  0  0  0  0  0  0  0  0  0  0
    1.9504   -2.3708    0.0788 C   0  0  0  0  0  0  0  0  0  0  0  0
    3.2806   -1.9762    0.2286 C   0  0  0  0  0  0  0  0  0  0  0  0
    5.7047   -0.1683   -0.8128 C   0  0  0  0  0  0  0  0  0  0  0  0
    0.2517   -4.0280   -0.0759 C   0  0  0  0  0  0  0  0  0  0  0  0
   -4.5694    2.5413    0.0792 H   0  0  0  0  0  0  0  0  0  0  0  0
   -4.4892    1.8096    1.6781 H   0  0  0  0  0  0  0  0  0  0  0  0
   -5.6554    0.9108   -1.2046 H   0  0  0  0  0  0  0  0  0  0  0  0
   -6.0783    0.1936    0.3642 H   0  0  0  0  0  0  0  0  0  0  0  0
   -4.2208   -0.5443    1.8887 H   0  0  0  0  0  0  0  0  0  0  0  0
   -2.5411   -0.3400    1.3554 H   0  0  0  0  0  0  0  0  0  0  0  0
   -2.6111    3.3367    1.3024 H   0  0  0  0  0  0  0  0  0  0  0  0
   -1.9707    1.7244    1.4757 H   0  0  0  0  0  0  0  0  0  0  0  0
   -2.8697   -1.9428   -0.4973 H   0  0  0  0  0  0  0  0  0  0  0  0
   -3.3108   -2.6682    1.0536 H   0  0  0  0  0  0  0  0  0  0  0  0
   -6.3319   -1.4789   -1.4223 H   0  0  0  0  0  0  0  0  0  0  0  0
   -4.6687   -1.2354   -1.9722 H   0  0  0  0  0  0  0  0  0  0  0  0
   -2.4610    3.2349   -1.1425 H   0  0  0  0  0  0  0  0  0  0  0  0
   -1.9077    1.5771   -1.1217 H   0  0  0  0  0  0  0  0  0  0  0  0
   -0.4033    4.0124   -0.3869 H   0  0  0  0  0  0  0  0  0  0  0  0
    1.9867    3.7503   -0.1088 H   0  0  0  0  0  0  0  0  0  0  0  0
   -0.1017   -1.6576   -0.1937 H   0  0  0  0  0  0  0  0  0  0  0  0
    4.0567   -2.7285    0.3479 H   0  0  0  0  0  0  0  0  0  0  0  0
    6.6603    0.2947   -0.5522 H   0  0  0  0  0  0  0  0  0  0  0  0
    5.2038    0.4565   -1.5593 H   0  0  0  0  0  0  0  0  0  0  0  0
    5.8994   -1.1606   -1.2314 H   0  0  0  0  0  0  0  0  0  0  0  0
   -0.3526   -3.6481    0.7550 H   0  0  0  0  0  0  0  0  0  0  0  0
   -0.1322   -3.7056   -1.0497 H   0  0  0  0  0  0  0  0  0  0  0  0
    0.1792   -5.1203   -0.0499 H   0  0  0  0  0  0  0  0  0  0  0  0
  1 12  1  0  0  0  0
  1 13  1  0  0  0  0
  2 15  1  0  0  0  0
  2 17  1  0  0  0  0
  3 20  1  0  0  0  0
  3 24  1  0  0  0  0
  4 22  1  0  0  0  0
  4 25  1  0  0  0  0
  5 19  2  0  0  0  0
  6  8  1  0  0  0  0
  6  9  1  0  0  0  0
  6 10  1  0  0  0  0
  7 14  1  0  0  0  0
  7 15  1  0  0  0  0
  7 40  1  0  0  0  0
  8 11  1  0  0  0  0
  8 26  1  0  0  0  0
  8 27  1  0  0  0  0
  9 12  1  0  0  0  0
  9 28  1  0  0  0  0
  9 29  1  0  0  0  0
 10 13  1  0  0  0  0
 10 30  1  0  0  0  0
 10 31  1  0  0  0  0
 11 14  1  0  0  0  0
 11 32  1  0  0  0  0
 11 33  1  0  0  0  0
 12 36  1  0  0  0  0
 12 37  1  0  0  0  0
 13 34  1  0  0  0  0
 13 35  1  0  0  0  0
 14 38  1  0  0  0  0
 14 39  1  0  0  0  0
 15 18  2  0  0  0  0
 16 17  2  0  0  0  0
 16 19  1  0  0  0  0
 16 20  1  0  0  0  0
 17 21  1  0  0  0  0
 18 19  1  0  0  0  0
 18 41  1  0  0  0  0
 20 23  2  0  0  0  0
 21 22  2  0  0  0  0
 21 42  1  0  0  0  0
 22 23  1  0  0  0  0
 23 43  1  0  0  0  0
 24 44  1  0  0  0  0
 24 45  1  0  0  0  0
 24 46  1  0  0  0  0
 25 47  1  0  0  0  0
 25 48  1  0  0  0  0
 25 49  1  0  0  0  0
M  END
> <PUBCHEM_COMPOUND_CID>
127028361

> <PUBCHEM_CONFORMER_RMSD>
0.8

> <PUBCHEM_CONFORMER_DIVERSEORDER>
1
134
174
133
46
53
118
170
34
73
93
184
168
148
64
85
119
123
149
177
160
82
69
99
101
142
88
31
113
80
29
77
155
176
65
110
178
78
21
57
180
158
126
161
90
15
153
169
70
111
27
152
76
87
117
115
138
37
163
55
89
167
51
47
13
182
172
130
49
139
60
121
181
74
38
185
162
5
79
131
102
147
66
45
104
81
98
83
116
58
71
8
95
7
112
128
105
141
143
114
92
52
43
4
72
144
108
28
97
122
146
136
135
40
75
132
41
6
173
18
63
127
2
164
24
120
22
175
156
183
17
151
150
54
3
157
61
159
9
19
125
186
129
48
50
96
109
56
106
137
171
84
68
10
94
145
100
124
11
166
103
12
32
86
107
33
91
140
67
42
59
35
25
179
62
165
20
36
154
14
39
23
26
16
30
44

> <PUBCHEM_MMFF94_PARTIAL_CHARGES>
28
1 -0.56
10 0.27
12 0.28
13 0.28
14 0.37
15 0.18
16 0.09
17 0.08
18 -0.14
19 0.47
2 -0.16
20 0.08
21 -0.15
22 0.08
23 -0.15
24 0.28
25 0.28
3 -0.36
4 -0.36
40 0.4
41 0.15
42 0.15
43 0.15
5 -0.57
6 -0.81
7 -0.87
8 0.27
9 0.27

> <PUBCHEM_EFFECTIVE_ROTOR_COUNT>
8.2

> <PUBCHEM_PHARMACOPHORE_FEATURES>
11
1 1 acceptor
1 2 acceptor
1 3 acceptor
1 4 acceptor
1 5 acceptor
1 6 cation
1 7 cation
1 7 donor
6 1 6 9 10 12 13 rings
6 16 17 20 21 22 23 rings
6 2 15 16 17 18 19 rings

> <PUBCHEM_HEAVY_ATOM_COUNT>
25

> <PUBCHEM_ATOM_DEF_STEREO_COUNT>
0

> <PUBCHEM_ATOM_UDEF_STEREO_COUNT>
0

> <PUBCHEM_BOND_DEF_STEREO_COUNT>
0

> <PUBCHEM_BOND_UDEF_STEREO_COUNT>
0

> <PUBCHEM_ISOTOPIC_ATOM_COUNT>
0

> <PUBCHEM_COMPONENT_COUNT>
1

> <PUBCHEM_CACTVS_TAUTO_COUNT>
3

> <PUBCHEM_CONFORMER_ID>
07924C8900000001

> <PUBCHEM_MMFF94_ENERGY>
76.7892

> <PUBCHEM_FEATURE_SELFOVERLAP>
55.86

> <PUBCHEM_SHAPE_FINGERPRINT>
10074138 170 17476042076333561168
10616163 171 18412266103935540467
1100329 8 17834674173026331944
11136131 41 18261100916549389522
11488393 25 17415579618284473446
11513181 2 17916304948635677631
11552529 35 18130222641111704241
12038231 1 18337955584860914387
12596602 18 17203605999424517977
12839892 36 18338220584274064504
13140716 1 18048868887088861138
13402501 40 18334011726798688379
14790565 3 18337401525706210124
15196674 1 18410575119381935689
15352361 1 18410009944856799725
16114785 44 14824830498471431313
19591789 44 18410858754969568548
20028762 73 18272929444812742638
21673915 165 18411980234806339947
21857420 4 13065301123465887933
22113638 7 18194116541643863015
23379529 103 17479179661322664622
23559900 14 18410847772648983241
3246872 21 18412256268461121471
350125 39 18410292536736257256
3882209 13 17180767829331558611
46194498 28 17460024292419622925
463206 1 18126845135012955119
6433294 58 18050005497826423219
9709674 26 18337958861857449859

> <PUBCHEM_SHAPE_MULTIPOLES>
475.18
11.46
4.41
0.81
5.67
1.84
-0.01
1.93
-1.1
-0.23
-0.02
0.48
-0.04
-0.54

> <PUBCHEM_SHAPE_SELFOVERLAP>
1002.009

> <PUBCHEM_SHAPE_VOLUME>
268.6

> <PUBCHEM_COORDINATE_TYPE>
2
5
10

$$$$