127042919
  -OEChem-03242010103D

 52 55  0     0  0  0  0  0  0999 V2000
    1.5130   -0.6710    0.2399 O   0  0  0  0  0  0  0  0  0  0  0  0
    3.0175    3.1103    0.2155 O   0  0  0  0  0  0  0  0  0  0  0  0
    5.4537    2.1272   -0.1279 O   0  0  0  0  0  0  0  0  0  0  0  0
    5.8065   -2.6029   -0.3701 O   0  0  0  0  0  0  0  0  0  0  0  0
   -3.3262   -0.7218    0.1673 N   0  0  0  0  0  0  0  0  0  0  0  0
   -0.6368    0.1458    0.5385 N   0  0  0  0  0  0  0  0  0  0  0  0
   -2.2435   -1.6986    0.3555 C   0  0  0  0  0  0  0  0  0  0  0  0
   -2.8222    0.4717   -0.5272 C   0  0  0  0  0  0  0  0  0  0  0  0
   -1.0961   -1.0926    1.1660 C   0  0  0  0  0  0  0  0  0  0  0  0
   -1.6874    1.1254    0.2640 C   0  0  0  0  0  0  0  0  0  0  0  0
   -4.4338   -1.3199   -0.5771 C   0  0  0  0  0  0  0  0  0  0  0  0
    0.6876    0.4377    0.3882 C   0  0  0  0  0  0  0  0  0  0  0  0
   -5.7175   -0.5579   -0.3807 C   0  0  0  0  0  0  0  0  0  0  0  0
    1.1509    1.6989    0.3849 C   0  0  0  0  0  0  0  0  0  0  0  0
    2.8621   -0.4806    0.0817 C   0  0  0  0  0  0  0  0  0  0  0  0
    3.4517    0.7814    0.0623 C   0  0  0  0  0  0  0  0  0  0  0  0
    2.5930    1.9632    0.2188 C   0  0  0  0  0  0  0  0  0  0  0  0
   -6.5782   -0.8982    0.6629 C   0  0  0  0  0  0  0  0  0  0  0  0
   -6.0458    0.4883   -1.2426 C   0  0  0  0  0  0  0  0  0  0  0  0
    4.8322    0.9154   -0.1025 C   0  0  0  0  0  0  0  0  0  0  0  0
    3.6531   -1.6206   -0.0638 C   0  0  0  0  0  0  0  0  0  0  0  0
   -7.7674   -0.1921    0.8446 C   0  0  0  0  0  0  0  0  0  0  0  0
   -7.2350    1.1944   -1.0610 C   0  0  0  0  0  0  0  0  0  0  0  0
    5.0327   -1.4920   -0.2283 C   0  0  0  0  0  0  0  0  0  0  0  0
    5.6207   -0.2265   -0.2478 C   0  0  0  0  0  0  0  0  0  0  0  0
   -8.0959    0.8541   -0.0174 C   0  0  0  0  0  0  0  0  0  0  0  0
    6.8695    2.1258   -0.3027 C   0  0  0  0  0  0  0  0  0  0  0  0
    5.1415   -3.8649   -0.3410 C   0  0  0  0  0  0  0  0  0  0  0  0
   -2.4679    0.2165   -1.5350 H   0  0  0  0  0  0  0  0  0  0  0  0
   -3.6001    1.2328   -0.6305 H   0  0  0  0  0  0  0  0  0  0  0  0
   -2.6180   -2.5745    0.8990 H   0  0  0  0  0  0  0  0  0  0  0  0
   -1.8660   -2.0484   -0.6148 H   0  0  0  0  0  0  0  0  0  0  0  0
   -1.4335   -0.8696    2.1865 H   0  0  0  0  0  0  0  0  0  0  0  0
   -0.3000   -1.8402    1.2575 H   0  0  0  0  0  0  0  0  0  0  0  0
   -1.3328    1.9697   -0.3377 H   0  0  0  0  0  0  0  0  0  0  0  0
   -2.0634    1.5316    1.2114 H   0  0  0  0  0  0  0  0  0  0  0  0
   -4.6130   -2.3472   -0.2296 H   0  0  0  0  0  0  0  0  0  0  0  0
   -4.2049   -1.4187   -1.6472 H   0  0  0  0  0  0  0  0  0  0  0  0
    0.5247    2.5719    0.5267 H   0  0  0  0  0  0  0  0  0  0  0  0
   -6.3334   -1.7097    1.3431 H   0  0  0  0  0  0  0  0  0  0  0  0
   -5.3957    0.7553   -2.0714 H   0  0  0  0  0  0  0  0  0  0  0  0
    3.1400   -2.5764   -0.0407 H   0  0  0  0  0  0  0  0  0  0  0  0
   -8.4375   -0.4567    1.6573 H   0  0  0  0  0  0  0  0  0  0  0  0
   -7.4928    2.0065   -1.7345 H   0  0  0  0  0  0  0  0  0  0  0  0
    6.6972   -0.2125   -0.3800 H   0  0  0  0  0  0  0  0  0  0  0  0
   -9.0222    1.4034    0.1234 H   0  0  0  0  0  0  0  0  0  0  0  0
    7.1918    3.1726   -0.2984 H   0  0  0  0  0  0  0  0  0  0  0  0
    7.1588    1.7142   -1.2758 H   0  0  0  0  0  0  0  0  0  0  0  0
    7.3822    1.6379    0.5335 H   0  0  0  0  0  0  0  0  0  0  0  0
    5.9079   -4.6366   -0.4677 H   0  0  0  0  0  0  0  0  0  0  0  0
    4.4413   -3.9705   -1.1766 H   0  0  0  0  0  0  0  0  0  0  0  0
    4.6635   -4.0460    0.6277 H   0  0  0  0  0  0  0  0  0  0  0  0
  1 12  1  0  0  0  0
  1 15  1  0  0  0  0
  2 17  2  0  0  0  0
  3 20  1  0  0  0  0
  3 27  1  0  0  0  0
  4 24  1  0  0  0  0
  4 28  1  0  0  0  0
  5  7  1  0  0  0  0
  5  8  1  0  0  0  0
  5 11  1  0  0  0  0
  6  9  1  0  0  0  0
  6 10  1  0  0  0  0
  6 12  1  0  0  0  0
  7  9  1  0  0  0  0
  7 31  1  0  0  0  0
  7 32  1  0  0  0  0
  8 10  1  0  0  0  0
  8 29  1  0  0  0  0
  8 30  1  0  0  0  0
  9 33  1  0  0  0  0
  9 34  1  0  0  0  0
 10 35  1  0  0  0  0
 10 36  1  0  0  0  0
 11 13  1  0  0  0  0
 11 37  1  0  0  0  0
 11 38  1  0  0  0  0
 12 14  2  0  0  0  0
 13 18  2  0  0  0  0
 13 19  1  0  0  0  0
 14 17  1  0  0  0  0
 14 39  1  0  0  0  0
 15 16  2  0  0  0  0
 15 21  1  0  0  0  0
 16 17  1  0  0  0  0
 16 20  1  0  0  0  0
 18 22  1  0  0  0  0
 18 40  1  0  0  0  0
 19 23  2  0  0  0  0
 19 41  1  0  0  0  0
 20 25  2  0  0  0  0
 21 24  2  0  0  0  0
 21 42  1  0  0  0  0
 22 26  2  0  0  0  0
 22 43  1  0  0  0  0
 23 26  1  0  0  0  0
 23 44  1  0  0  0  0
 24 25  1  0  0  0  0
 25 45  1  0  0  0  0
 26 46  1  0  0  0  0
 27 47  1  0  0  0  0
 27 48  1  0  0  0  0
 27 49  1  0  0  0  0
 28 50  1  0  0  0  0
 28 51  1  0  0  0  0
 28 52  1  0  0  0  0
M  END
> <PUBCHEM_COMPOUND_CID>
127042919

> <PUBCHEM_CONFORMER_RMSD>
0.8

> <PUBCHEM_CONFORMER_DIVERSEORDER>
4
24
22
32
3
38
2
10
28
25
21
37
27
6
29
13
36
30
16
7
14
18
40
33
26
43
12
15
8
5
42
23
35
17
1
44
9
19
34
31
39
20
41
11

> <PUBCHEM_MMFF94_PARTIAL_CHARGES>
36
1 -0.16
10 0.37
11 0.41
12 0.18
13 -0.14
14 -0.14
15 0.08
16 0.09
17 0.47
18 -0.15
19 -0.15
2 -0.57
20 0.08
21 -0.15
22 -0.15
23 -0.15
24 0.08
25 -0.15
26 -0.15
27 0.28
28 0.28
3 -0.36
39 0.15
4 -0.36
40 0.15
41 0.15
42 0.15
43 0.15
44 0.15
45 0.15
46 0.15
5 -0.81
6 -0.84
7 0.27
8 0.27
9 0.37

> <PUBCHEM_EFFECTIVE_ROTOR_COUNT>
6.2

> <PUBCHEM_PHARMACOPHORE_FEATURES>
10
1 1 acceptor
1 2 acceptor
1 3 acceptor
1 4 acceptor
1 5 cation
1 6 cation
6 1 12 14 15 16 17 rings
6 13 18 19 22 23 26 rings
6 15 16 20 21 24 25 rings
6 5 6 7 8 9 10 rings

> <PUBCHEM_HEAVY_ATOM_COUNT>
28

> <PUBCHEM_ATOM_DEF_STEREO_COUNT>
0

> <PUBCHEM_ATOM_UDEF_STEREO_COUNT>
0

> <PUBCHEM_BOND_DEF_STEREO_COUNT>
0

> <PUBCHEM_BOND_UDEF_STEREO_COUNT>
0

> <PUBCHEM_ISOTOPIC_ATOM_COUNT>
0

> <PUBCHEM_COMPONENT_COUNT>
1

> <PUBCHEM_CACTVS_TAUTO_COUNT>
1

> <PUBCHEM_CONFORMER_ID>
0792856700000004

> <PUBCHEM_MMFF94_ENERGY>
101.8664

> <PUBCHEM_FEATURE_SELFOVERLAP>
50.787

> <PUBCHEM_SHAPE_FINGERPRINT>
10066227 112 18410289233916839293
10299344 5 18131351921489871183
10411042 1 18123471584600308038
10835480 77 18336825389490747580
11135609 187 18410855494593428138
11135609 201 10954036913409397134
11181472 205 17489040266326078769
11408170 132 18335426725360378372
11497681 19 18196366139005145055
11719270 70 17489587840048758311
11724838 91 8286196145615248089
11796584 16 17418096580413960639
12144600 37 18335426790222951699
13533116 47 18272368668202053834
14117953 113 18060140890822777862
14170010 4 18409448111421035936
14251764 18 17989205971771918151
14675020 138 18261658343117190570
14933364 13 18261111881442639973
15082195 135 18040731272767153156
15119646 104 17703793574585950551
15183329 4 17775568646065089077
15276724 80 18341892983318876277
15510794 2 18186522116558308395
1577012 14 18131629015378524039
15840311 113 18260550048561018005
15927050 60 18040994060283903435
18335252 114 18411408493761882253
18335252 98 18334863869864296283
18608769 82 17895194446015196299
19489759 90 14261360167803506187
20157964 124 18410293619009681822
21033648 29 18042400399235350984
21267235 1 18342181021147520318
21279426 13 18261668191191960053
21792934 111 18270951367754542408
221357 26 18408601435695717972
22224240 67 9943514207101790031
23522609 53 17844834596954677777
23559900 14 18339918333138130753
24771750 20 17609793245698739125
255183 451 18057615270391934638
29717793 49 17988646289370704844
3004659 81 18334011662337327186
3014965 18 18412542094080934095
34797466 226 17095530608132214606
4073 2 18114465676964782571
4098825 35 18336827589062401985
46194498 28 17821728355849074388
504579 68 18271257079295092276
59755656 215 18114178601862193035
70251023 43 18265899047838726162

> <PUBCHEM_SHAPE_MULTIPOLES>
542.79
22.78
2.85
0.87
26.73
1.05
-0.03
-0.52
-3.3
-6.76
-0.2
1.05
0.03
1.07

> <PUBCHEM_SHAPE_SELFOVERLAP>
1176.831

> <PUBCHEM_SHAPE_VOLUME>
299

> <PUBCHEM_COORDINATE_TYPE>
2
5
10

$$$$