64727
  -OEChem-03242010103D

 68 69  0     1  0  0  0  0  0999 V2000
    2.6108   -0.3943    0.0688 O   0  0  0  0  0  0  0  0  0  0  0  0
   -1.3922   -3.1310   -0.4061 O   0  0  0  0  0  0  0  0  0  0  0  0
    3.6173   -1.6310    1.7360 O   0  0  0  0  0  0  0  0  0  0  0  0
   -5.1663   -1.2103   -1.1044 O   0  0  0  0  0  0  0  0  0  0  0  0
   -7.5531    0.1052    1.5543 O   0  0  0  0  0  0  0  0  0  0  0  0
   -6.2554    1.3345    0.1508 O   0  0  0  0  0  0  0  0  0  0  0  0
    1.1133    1.5092    0.3695 C   0  0  1  0  0  0  0  0  0  0  0  0
    0.1429    0.9222   -0.6983 C   0  0  2  0  0  0  0  0  0  0  0  0
    1.9984    0.4381    1.0485 C   0  0  2  0  0  0  0  0  0  0  0  0
   -0.7368    2.0378   -1.3348 C   0  0  2  0  0  0  0  0  0  0  0  0
    1.9485    2.6405   -0.2231 C   0  0  0  0  0  0  0  0  0  0  0  0
   -0.7097   -0.2314   -0.1582 C   0  0  0  0  0  0  0  0  0  0  0  0
    3.0634    1.0820    1.9407 C   0  0  0  0  0  0  0  0  0  0  0  0
    3.9637    2.0815    1.1940 C   0  0  2  0  0  0  0  0  0  0  0  0
    3.2170    2.8779    0.1568 C   0  0  0  0  0  0  0  0  0  0  0  0
    0.0998    3.2278   -1.7278 C   0  0  0  0  0  0  0  0  0  0  0  0
    1.3175    3.4766   -1.2286 C   0  0  0  0  0  0  0  0  0  0  0  0
   -1.5007   -0.8978   -1.2830 C   0  0  0  0  0  0  0  0  0  0  0  0
   -1.8977    2.5126   -0.4550 C   0  0  0  0  0  0  0  0  0  0  0  0
    5.1769    1.4006    0.5546 C   0  0  0  0  0  0  0  0  0  0  0  0
   -2.3100   -2.1205   -0.8302 C   0  0  2  0  0  0  0  0  0  0  0  0
   -3.3127   -1.8643    0.3059 C   0  0  0  0  0  0  0  0  0  0  0  0
    3.4026   -1.4005    0.5529 C   0  0  0  0  0  0  0  0  0  0  0  0
    4.0081   -2.1813   -0.6012 C   0  0  2  0  0  0  0  0  0  0  0  0
   -4.3758   -0.7996    0.0092 C   0  0  2  0  0  0  0  0  0  0  0  0
    3.6059   -3.6623   -0.5492 C   0  0  0  0  0  0  0  0  0  0  0  0
   -5.3047   -0.6188    1.2099 C   0  0  0  0  0  0  0  0  0  0  0  0
    5.5252   -2.0250   -0.5435 C   0  0  0  0  0  0  0  0  0  0  0  0
    2.0970   -3.8609   -0.6167 C   0  0  0  0  0  0  0  0  0  0  0  0
   -6.3935    0.3827    0.9082 C   0  0  0  0  0  0  0  0  0  0  0  0
    0.5049    1.9637    1.1655 H   0  0  0  0  0  0  0  0  0  0  0  0
    0.7674    0.5137   -1.5087 H   0  0  0  0  0  0  0  0  0  0  0  0
    1.3626   -0.1900    1.6854 H   0  0  0  0  0  0  0  0  0  0  0  0
   -1.1602    1.6483   -2.2692 H   0  0  0  0  0  0  0  0  0  0  0  0
   -0.0646   -0.9983    0.2815 H   0  0  0  0  0  0  0  0  0  0  0  0
   -1.3638    0.1148    0.6476 H   0  0  0  0  0  0  0  0  0  0  0  0
    2.5208    1.6511    2.7111 H   0  0  0  0  0  0  0  0  0  0  0  0
    3.6815    0.3910    2.5152 H   0  0  0  0  0  0  0  0  0  0  0  0
    4.3487    2.7863    1.9431 H   0  0  0  0  0  0  0  0  0  0  0  0
    3.7712    3.6988   -0.2955 H   0  0  0  0  0  0  0  0  0  0  0  0
   -0.3146    3.9106   -2.4653 H   0  0  0  0  0  0  0  0  0  0  0  0
    1.8613    4.3461   -1.5884 H   0  0  0  0  0  0  0  0  0  0  0  0
   -0.7962   -1.2174   -2.0620 H   0  0  0  0  0  0  0  0  0  0  0  0
   -2.1901   -0.1908   -1.7528 H   0  0  0  0  0  0  0  0  0  0  0  0
   -2.4439    3.3291   -0.9424 H   0  0  0  0  0  0  0  0  0  0  0  0
   -1.5472    2.8878    0.5124 H   0  0  0  0  0  0  0  0  0  0  0  0
   -2.6212    1.7243   -0.2663 H   0  0  0  0  0  0  0  0  0  0  0  0
    5.9340    2.1483    0.2901 H   0  0  0  0  0  0  0  0  0  0  0  0
    4.9014    0.8927   -0.3725 H   0  0  0  0  0  0  0  0  0  0  0  0
    5.6467    0.6862    1.2375 H   0  0  0  0  0  0  0  0  0  0  0  0
   -2.8451   -2.5299   -1.6948 H   0  0  0  0  0  0  0  0  0  0  0  0
   -3.8104   -2.8209    0.5186 H   0  0  0  0  0  0  0  0  0  0  0  0
   -2.7724   -1.6125    1.2269 H   0  0  0  0  0  0  0  0  0  0  0  0
    3.6537   -1.7561   -1.5488 H   0  0  0  0  0  0  0  0  0  0  0  0
   -3.9222    0.1564   -0.2456 H   0  0  0  0  0  0  0  0  0  0  0  0
   -0.8176   -3.3415   -1.1618 H   0  0  0  0  0  0  0  0  0  0  0  0
    3.9798   -4.1243    0.3728 H   0  0  0  0  0  0  0  0  0  0  0  0
    4.0702   -4.1966   -1.3868 H   0  0  0  0  0  0  0  0  0  0  0  0
   -5.7884   -1.5758    1.4415 H   0  0  0  0  0  0  0  0  0  0  0  0
   -4.7546   -0.2774    2.0925 H   0  0  0  0  0  0  0  0  0  0  0  0
    5.8333   -0.9971   -0.7405 H   0  0  0  0  0  0  0  0  0  0  0  0
    6.0066   -2.6534   -1.3009 H   0  0  0  0  0  0  0  0  0  0  0  0
    5.9255   -2.3124    0.4350 H   0  0  0  0  0  0  0  0  0  0  0  0
   -4.6080   -1.1597   -1.8983 H   0  0  0  0  0  0  0  0  0  0  0  0
    1.6817   -3.3979   -1.5174 H   0  0  0  0  0  0  0  0  0  0  0  0
    1.8593   -4.9291   -0.6444 H   0  0  0  0  0  0  0  0  0  0  0  0
    1.5951   -3.4311    0.2555 H   0  0  0  0  0  0  0  0  0  0  0  0
   -8.2547    0.7577    1.3439 H   0  0  0  0  0  0  0  0  0  0  0  0
  1  9  1  0  0  0  0
  1 23  1  0  0  0  0
  2 21  1  0  0  0  0
  2 56  1  0  0  0  0
  3 23  2  0  0  0  0
  4 25  1  0  0  0  0
  4 64  1  0  0  0  0
  5 30  1  0  0  0  0
  5 68  1  0  0  0  0
  6 30  2  0  0  0  0
  7  8  1  0  0  0  0
  7  9  1  0  0  0  0
  7 11  1  0  0  0  0
  7 31  1  0  0  0  0
  8 10  1  0  0  0  0
  8 12  1  0  0  0  0
  8 32  1  0  0  0  0
  9 13  1  0  0  0  0
  9 33  1  0  0  0  0
 10 16  1  0  0  0  0
 10 19  1  0  0  0  0
 10 34  1  0  0  0  0
 11 15  2  0  0  0  0
 11 17  1  0  0  0  0
 12 18  1  0  0  0  0
 12 35  1  0  0  0  0
 12 36  1  0  0  0  0
 13 14  1  0  0  0  0
 13 37  1  0  0  0  0
 13 38  1  0  0  0  0
 14 15  1  0  0  0  0
 14 20  1  0  0  0  0
 14 39  1  0  0  0  0
 15 40  1  0  0  0  0
 16 17  2  0  0  0  0
 16 41  1  0  0  0  0
 17 42  1  0  0  0  0
 18 21  1  0  0  0  0
 18 43  1  0  0  0  0
 18 44  1  0  0  0  0
 19 45  1  0  0  0  0
 19 46  1  0  0  0  0
 19 47  1  0  0  0  0
 20 48  1  0  0  0  0
 20 49  1  0  0  0  0
 20 50  1  0  0  0  0
 21 22  1  0  0  0  0
 21 51  1  0  0  0  0
 22 25  1  0  0  0  0
 22 52  1  0  0  0  0
 22 53  1  0  0  0  0
 23 24  1  0  0  0  0
 24 26  1  0  0  0  0
 24 28  1  0  0  0  0
 24 54  1  0  0  0  0
 25 27  1  0  0  0  0
 25 55  1  0  0  0  0
 26 29  1  0  0  0  0
 26 57  1  0  0  0  0
 26 58  1  0  0  0  0
 27 30  1  0  0  0  0
 27 59  1  0  0  0  0
 27 60  1  0  0  0  0
 28 61  1  0  0  0  0
 28 62  1  0  0  0  0
 28 63  1  0  0  0  0
 29 65  1  0  0  0  0
 29 66  1  0  0  0  0
 29 67  1  0  0  0  0
M  END
> <PUBCHEM_COMPOUND_CID>
64727

> <PUBCHEM_CONFORMER_RMSD>
1

> <PUBCHEM_CONFORMER_DIVERSEORDER>
1
167
117
52
160
62
105
156
99
139
100
16
163
89
133
124
44
106
125
64
71
74
83
90
130
114
76
136
95
138
86
175
144
170
36
162
58
153
87
123
172
127
157
155
148
111
152
54
63
88
135
77
101
72
43
47
154
169
174
165
78
60
79
168
171
81
25
98
122
4
118
121
96
104
68
14
102
132
149
166
94
40
147
140
45
119
146
173
33
38
128
134
131
109
55
56
23
92
7
141
32
161
129
46
116
15
49
159
22
93
57
11
37
51
19
143
69
126
142
75
84
120
31
112
9
82
8
28
91
97
26
108
66
158
39
59
145
137
50
164
65
42
103
107
150
85
53
35
27
30
48
110
21
2
115
13
24
20
34
41
61
80
12
10
17
5
29
67
3
73
18
151
113
6
70

> <PUBCHEM_MMFF94_PARTIAL_CHARGES>
26
1 -0.43
10 0.14
11 -0.14
14 0.14
15 -0.29
16 -0.29
17 -0.15
2 -0.68
21 0.28
23 0.66
24 0.06
25 0.28
27 0.06
3 -0.57
30 0.66
4 -0.68
40 0.15
41 0.15
42 0.15
5 -0.65
56 0.4
6 -0.57
64 0.4
68 0.5
7 0.14
9 0.28

> <PUBCHEM_EFFECTIVE_ROTOR_COUNT>
12

> <PUBCHEM_PHARMACOPHORE_FEATURES>
12
1 2 acceptor
1 2 donor
1 28 hydrophobe
1 29 hydrophobe
1 3 acceptor
1 4 acceptor
1 4 donor
1 5 acceptor
1 6 acceptor
3 5 6 30 anion
6 7 8 10 11 16 17 rings
6 7 9 11 13 14 15 rings

> <PUBCHEM_HEAVY_ATOM_COUNT>
30

> <PUBCHEM_ATOM_DEF_STEREO_COUNT>
8

> <PUBCHEM_ATOM_UDEF_STEREO_COUNT>
0

> <PUBCHEM_BOND_DEF_STEREO_COUNT>
0

> <PUBCHEM_BOND_UDEF_STEREO_COUNT>
0

> <PUBCHEM_ISOTOPIC_ATOM_COUNT>
0

> <PUBCHEM_COMPONENT_COUNT>
1

> <PUBCHEM_CACTVS_TAUTO_COUNT>
1

> <PUBCHEM_CONFORMER_ID>
0000FCD700000001

> <PUBCHEM_MMFF94_ENERGY>
53.5146

> <PUBCHEM_FEATURE_SELFOVERLAP>
60.973

> <PUBCHEM_SHAPE_FINGERPRINT>
10906281 52 17896604084136083040
11135609 12 18261664909858408680
12107183 9 18271811177358138371
12422481 6 18342175523647364925
12553582 1 18336252479930478510
12778500 126 17846506936744007464
12788726 201 17969504810129063298
13140716 1 18193535810752715648
13533116 47 18131914840866844843
14020679 6 18040725779193225763
14790565 3 17833833046605015060
14863182 85 18334856177888969100
15064986 96 17917727815176071359
15081414 286 18334292106205395261
15219462 58 16196456771513061982
15664445 248 18190189056282527684
16112460 7 18341339911668423241
17818456 19 18131638876602109161
1813 80 17313098674627873253
19026451 147 11242240870842269502
1979834 28 18266453385728201408
20429552 37 18409731746861066643
20739085 24 18408325513984912636
20775530 9 18339350856626633558
21421861 104 18261102011159648088
22182313 1 18189876695652341060
23559900 14 18411697711804906987
3117164 225 18411140238646951145
3493558 16 16984633672228983011
350125 39 18341896255661183028
394071 54 18409165532568963835
4144715 1 18188221974519628347
44317340 157 9295299356836341943
563151 74 17130963461274683914
57527585 103 15972177939035022830

> <PUBCHEM_SHAPE_MULTIPOLES>
582.17
13.42
4.82
1.48
22.39
1.04
0.22
3.69
5.67
-5.1
-1.94
0.06
-0.5
0.79

> <PUBCHEM_SHAPE_SELFOVERLAP>
1179.395

> <PUBCHEM_SHAPE_VOLUME>
335.2

> <PUBCHEM_COORDINATE_TYPE>
2
5
10

$$$$