127028359
  -OEChem-03242010103D

 53 56  0     0  0  0  0  0  0999 V2000
   -2.1278    0.2740    0.0848 O   0  0  0  0  0  0  0  0  0  0  0  0
    3.9971   -3.0777    0.8831 O   0  0  0  0  0  0  0  0  0  0  0  0
   -5.0013   -2.5357   -0.5563 O   0  0  0  0  0  0  0  0  0  0  0  0
   -6.8674   -0.6767   -0.2708 O   0  0  0  0  0  0  0  0  0  0  0  0
   -5.3380    3.7288    0.6287 O   0  0  0  0  0  0  0  0  0  0  0  0
    7.8370    2.7485    0.2498 O   0  5  0  0  0  0  0  0  0  0  0  0
    7.6212    2.2425   -1.8754 O   0  0  0  0  0  0  0  0  0  0  0  0
   -0.4614   -1.3202   -0.1598 N   0  0  0  0  0  0  0  0  0  0  0  0
    2.1963   -1.5966    0.7238 N   0  0  0  0  0  0  0  0  0  0  0  0
    7.3243    2.0652   -0.6692 N   0  3  0  0  0  0  0  0  0  0  0  0
    0.5324   -0.3214   -0.5648 C   0  0  0  0  0  0  0  0  0  0  0  0
    0.0701   -2.6614    0.0998 C   0  0  0  0  0  0  0  0  0  0  0  0
    1.1967   -2.5852    1.1283 C   0  0  0  0  0  0  0  0  0  0  0  0
    1.6516   -0.2559    0.4720 C   0  0  0  0  0  0  0  0  0  0  0  0
   -1.7998   -1.0552   -0.1576 C   0  0  0  0  0  0  0  0  0  0  0  0
    3.5444   -1.9537    0.6717 C   0  0  0  0  0  0  0  0  0  0  0  0
   -2.7227   -2.0076   -0.3730 C   0  0  0  0  0  0  0  0  0  0  0  0
    4.5217   -0.9144    0.3248 C   0  0  0  0  0  0  0  0  0  0  0  0
   -3.4494    0.6405    0.1065 C   0  0  0  0  0  0  0  0  0  0  0  0
   -4.4892   -0.2622   -0.1042 C   0  0  0  0  0  0  0  0  0  0  0  0
   -4.1591   -1.6706   -0.3607 C   0  0  0  0  0  0  0  0  0  0  0  0
   -5.8177    0.1678   -0.0708 C   0  0  0  0  0  0  0  0  0  0  0  0
   -3.7332    1.9839    0.3533 C   0  0  0  0  0  0  0  0  0  0  0  0
    5.1050   -0.1424    1.3297 C   0  0  0  0  0  0  0  0  0  0  0  0
    4.8674   -0.6992   -1.0092 C   0  0  0  0  0  0  0  0  0  0  0  0
   -5.0587    2.4185    0.3879 C   0  0  0  0  0  0  0  0  0  0  0  0
   -6.0985    1.5122    0.1761 C   0  0  0  0  0  0  0  0  0  0  0  0
    6.0336    0.8449    1.0003 C   0  0  0  0  0  0  0  0  0  0  0  0
    5.7959    0.2880   -1.3387 C   0  0  0  0  0  0  0  0  0  0  0  0
    6.3790    1.0601   -0.3339 C   0  0  0  0  0  0  0  0  0  0  0  0
   -7.3210   -0.8401   -1.6133 C   0  0  0  0  0  0  0  0  0  0  0  0
   -4.2285    4.6014    0.8367 C   0  0  0  0  0  0  0  0  0  0  0  0
    0.1024    0.6782   -0.6921 H   0  0  0  0  0  0  0  0  0  0  0  0
    0.9447   -0.6144   -1.5386 H   0  0  0  0  0  0  0  0  0  0  0  0
    0.4436   -3.0850   -0.8406 H   0  0  0  0  0  0  0  0  0  0  0  0
   -0.6793   -3.3527    0.4991 H   0  0  0  0  0  0  0  0  0  0  0  0
    2.4217    0.4407    0.1348 H   0  0  0  0  0  0  0  0  0  0  0  0
    1.2662    0.1178    1.4284 H   0  0  0  0  0  0  0  0  0  0  0  0
    1.6531   -3.5716    1.2582 H   0  0  0  0  0  0  0  0  0  0  0  0
    0.8064   -2.2691    2.1034 H   0  0  0  0  0  0  0  0  0  0  0  0
   -2.4820   -3.0414   -0.5910 H   0  0  0  0  0  0  0  0  0  0  0  0
   -2.8841    2.6410    0.5102 H   0  0  0  0  0  0  0  0  0  0  0  0
    4.8422   -0.3020    2.3722 H   0  0  0  0  0  0  0  0  0  0  0  0
    4.4179   -1.2950   -1.7995 H   0  0  0  0  0  0  0  0  0  0  0  0
   -7.1294    1.8570    0.2051 H   0  0  0  0  0  0  0  0  0  0  0  0
    6.4674    1.4271    1.8093 H   0  0  0  0  0  0  0  0  0  0  0  0
    6.0406    0.4279   -2.3885 H   0  0  0  0  0  0  0  0  0  0  0  0
   -8.0158   -1.6839   -1.6400 H   0  0  0  0  0  0  0  0  0  0  0  0
   -6.4902   -1.0475   -2.2953 H   0  0  0  0  0  0  0  0  0  0  0  0
   -7.8513    0.0602   -1.9392 H   0  0  0  0  0  0  0  0  0  0  0  0
   -4.6341    5.6029    1.0137 H   0  0  0  0  0  0  0  0  0  0  0  0
   -3.5950    4.6667   -0.0545 H   0  0  0  0  0  0  0  0  0  0  0  0
   -3.6605    4.3244    1.7313 H   0  0  0  0  0  0  0  0  0  0  0  0
  1 15  1  0  0  0  0
  1 19  1  0  0  0  0
  2 16  2  0  0  0  0
  3 21  2  0  0  0  0
  4 22  1  0  0  0  0
  4 31  1  0  0  0  0
  5 26  1  0  0  0  0
  5 32  1  0  0  0  0
  6 10  1  0  0  0  0
  7 10  2  0  0  0  0
  8 11  1  0  0  0  0
  8 12  1  0  0  0  0
  8 15  1  0  0  0  0
  9 13  1  0  0  0  0
  9 14  1  0  0  0  0
  9 16  1  0  0  0  0
 10 30  1  0  0  0  0
 11 14  1  0  0  0  0
 11 33  1  0  0  0  0
 11 34  1  0  0  0  0
 12 13  1  0  0  0  0
 12 35  1  0  0  0  0
 12 36  1  0  0  0  0
 13 39  1  0  0  0  0
 13 40  1  0  0  0  0
 14 37  1  0  0  0  0
 14 38  1  0  0  0  0
 15 17  2  0  0  0  0
 16 18  1  0  0  0  0
 17 21  1  0  0  0  0
 17 41  1  0  0  0  0
 18 24  2  0  0  0  0
 18 25  1  0  0  0  0
 19 20  2  0  0  0  0
 19 23  1  0  0  0  0
 20 21  1  0  0  0  0
 20 22  1  0  0  0  0
 22 27  2  0  0  0  0
 23 26  2  0  0  0  0
 23 42  1  0  0  0  0
 24 28  1  0  0  0  0
 24 43  1  0  0  0  0
 25 29  2  0  0  0  0
 25 44  1  0  0  0  0
 26 27  1  0  0  0  0
 27 45  1  0  0  0  0
 28 30  2  0  0  0  0
 28 46  1  0  0  0  0
 29 30  1  0  0  0  0
 29 47  1  0  0  0  0
 31 48  1  0  0  0  0
 31 49  1  0  0  0  0
 31 50  1  0  0  0  0
 32 51  1  0  0  0  0
 32 52  1  0  0  0  0
 32 53  1  0  0  0  0
M  CHG  2   6  -1  10   1
M  END
> <PUBCHEM_COMPOUND_CID>
127028359

> <PUBCHEM_CONFORMER_RMSD>
1

> <PUBCHEM_CONFORMER_DIVERSEORDER>
1
4
7
2
8
10
3
9
6
5

> <PUBCHEM_MMFF94_PARTIAL_CHARGES>
39
1 -0.16
10 0.91
11 0.37
12 0.37
13 0.3
14 0.3
15 0.18
16 0.54
17 -0.14
18 0.09
19 0.08
2 -0.57
20 0.09
21 0.47
22 0.08
23 -0.15
24 -0.15
25 -0.15
26 0.08
27 -0.15
28 -0.15
29 -0.15
3 -0.57
30 0.13
31 0.28
32 0.28
4 -0.36
41 0.15
42 0.15
43 0.15
44 0.15
45 0.15
46 0.15
47 0.15
5 -0.36
6 -0.52
7 -0.52
8 -0.84
9 -0.66

> <PUBCHEM_EFFECTIVE_ROTOR_COUNT>
7.2

> <PUBCHEM_PHARMACOPHORE_FEATURES>
13
1 1 acceptor
1 2 acceptor
1 3 acceptor
1 4 acceptor
1 5 acceptor
1 6 acceptor
1 6 anion
1 7 acceptor
1 8 cation
6 1 15 17 19 20 21 rings
6 18 24 25 28 29 30 rings
6 19 20 22 23 26 27 rings
6 8 9 11 12 13 14 rings

> <PUBCHEM_HEAVY_ATOM_COUNT>
32

> <PUBCHEM_ATOM_DEF_STEREO_COUNT>
0

> <PUBCHEM_ATOM_UDEF_STEREO_COUNT>
0

> <PUBCHEM_BOND_DEF_STEREO_COUNT>
0

> <PUBCHEM_BOND_UDEF_STEREO_COUNT>
0

> <PUBCHEM_ISOTOPIC_ATOM_COUNT>
0

> <PUBCHEM_COMPONENT_COUNT>
1

> <PUBCHEM_CACTVS_TAUTO_COUNT>
1

> <PUBCHEM_CONFORMER_ID>
07924C8700000001

> <PUBCHEM_MMFF94_ENERGY>
122.836

> <PUBCHEM_FEATURE_SELFOVERLAP>
66.095

> <PUBCHEM_SHAPE_FINGERPRINT>
10 15 17676205792430683186
10454371 7 18202287991744653797
10554248 39 18196637506831506127
10595046 47 18409726257566100667
11007060 377 18409173203623219499
11101153 10 18410852166680062789
11991303 11 16486682671111324127
12107183 9 17833543497021054267
12236239 1 18261952951824446435
13782708 43 11887660767530563545
14394314 77 18337959999987801821
14790565 3 18410855421563510394
14849402 71 18335987557494144769
15183329 4 18413389851715829224
15289351 153 18410288113352063072
15400415 2 18270393880915657827
1577012 14 18410292472058118001
15840311 113 18188495666029200279
16096371 109 16153419542182852304
16992752 21 18197776807722426111
16993089 31 13973675179236231325
20058555 10 18338233765255109905
20511986 3 18115016412590019047
21298829 104 18334018315479247212
21424621 283 18335423474027559922
21585481 151 8142097459659000152
21585482 111 18187927214698375140
21792965 68 18263371429804887712
23081809 10 18337667516903643587
23559900 14 18341316882512353987
23729417 116 18268698568210327765
24771293 8 18333733546310158500
2748736 6 18334852801622791404
3418910 222 18261968435139376557
34797466 226 17561363997854065390
3918712 181 18408595959618417840
394071 54 16805615771887831102
397830 11 11602829051072943918
4073 2 18186523228037544770
4169191 19 18186800283650578653
4197921 191 18408881815677087025
44249763 50 17560220536079144146
445580 37 18342462551262233120
5080951 261 15792017835439280635
5104073 3 18114179679366508034
5265222 85 18201439198748464023
54583773 228 18409444779518003149
550186 72 18338514141295368093
5776283 40 18341049730513688856
5911458 16 18260554450374994996
5937810 71 17917444141661421456
6058803 2 18193540204320448723
6201320 77 12675746787119907909
6328613 192 18408886230513265453
636775 72 18267865163681921888
6636735 143 14490476442757962805
6673363 416 18124603230481893788
9831232 110 8429776997775536968
9961470 85 17976819019064725828

> <PUBCHEM_SHAPE_MULTIPOLES>
602.52
23.01
4.02
1.15
15.74
3.32
-0.24
15.14
-5.27
-2.6
0.91
1.29
0.08
-3.47

> <PUBCHEM_SHAPE_SELFOVERLAP>
1314.21

> <PUBCHEM_SHAPE_VOLUME>
328.3

> <PUBCHEM_COORDINATE_TYPE>
2
5
10

$$$$