54687
  -OEChem-03242010103D

 66 67  0     1  0  0  0  0  0999 V2000
    2.0725    1.0512   -0.1760 O   0  0  0  0  0  0  0  0  0  0  0  0
    6.1393   -0.3040   -0.0677 O   0  0  0  0  0  0  0  0  0  0  0  0
   -2.5200   -1.8874   -2.8013 O   0  0  0  0  0  0  0  0  0  0  0  0
    2.4487    2.5277   -1.9083 O   0  0  0  0  0  0  0  0  0  0  0  0
   -4.3406    1.3492   -0.6493 O   0  0  0  0  0  0  0  0  0  0  0  0
   -7.7821    1.3214    0.9787 O   0  0  0  0  0  0  0  0  0  0  0  0
   -5.7691    1.2721    2.0323 O   0  0  0  0  0  0  0  0  0  0  0  0
    2.1529   -1.4097   -0.2366 C   0  0  1  0  0  0  0  0  0  0  0  0
    0.6468   -1.5435    0.1347 C   0  0  2  0  0  0  0  0  0  0  0  0
    2.5105   -0.0733   -0.9351 C   0  0  2  0  0  0  0  0  0  0  0  0
    0.3536   -2.9088    0.8248 C   0  0  2  0  0  0  0  0  0  0  0  0
   -0.2825   -1.3083   -1.0619 C   0  0  0  0  0  0  0  0  0  0  0  0
    3.0401   -1.6582    0.9829 C   0  0  0  0  0  0  0  0  0  0  0  0
    4.0224    0.0358   -1.1298 C   0  0  0  0  0  0  0  0  0  0  0  0
    4.7713   -0.0095    0.2038 C   0  0  1  0  0  0  0  0  0  0  0  0
    1.3676   -3.2024    1.8999 C   0  0  0  0  0  0  0  0  0  0  0  0
   -1.7432   -1.2621   -0.6165 C   0  0  0  0  0  0  0  0  0  0  0  0
    4.2124   -1.0215    1.1616 C   0  0  0  0  0  0  0  0  0  0  0  0
    2.5704   -2.6174    1.9656 C   0  0  0  0  0  0  0  0  0  0  0  0
    0.2819   -4.1040   -0.1313 C   0  0  0  0  0  0  0  0  0  0  0  0
   -2.7258   -0.9403   -1.7504 C   0  0  2  0  0  0  0  0  0  0  0  0
   -4.2122   -0.9594   -1.3607 C   0  0  0  0  0  0  0  0  0  0  0  0
    2.3557    2.2767   -0.7135 C   0  0  0  0  0  0  0  0  0  0  0  0
   -4.6043    0.0093   -0.2383 C   0  0  2  0  0  0  0  0  0  0  0  0
    2.5708    3.2886    0.3992 C   0  0  2  0  0  0  0  0  0  0  0  0
   -6.0963   -0.1064    0.0742 C   0  0  0  0  0  0  0  0  0  0  0  0
    1.2586    3.9874    0.7839 C   0  0  0  0  0  0  0  0  0  0  0  0
    3.6125    4.3016   -0.0672 C   0  0  0  0  0  0  0  0  0  0  0  0
    0.1954    3.0092    1.2670 C   0  0  0  0  0  0  0  0  0  0  0  0
   -6.5073    0.8861    1.1352 C   0  0  0  0  0  0  0  0  0  0  0  0
    2.3911   -2.2093   -0.9540 H   0  0  0  0  0  0  0  0  0  0  0  0
    0.4303   -0.7585    0.8766 H   0  0  0  0  0  0  0  0  0  0  0  0
    2.0318   -0.0448   -1.9214 H   0  0  0  0  0  0  0  0  0  0  0  0
   -0.6125   -2.8308    1.3394 H   0  0  0  0  0  0  0  0  0  0  0  0
   -0.1218   -2.0596   -1.8421 H   0  0  0  0  0  0  0  0  0  0  0  0
   -0.0627   -0.3388   -1.5217 H   0  0  0  0  0  0  0  0  0  0  0  0
    4.3563   -0.7935   -1.7697 H   0  0  0  0  0  0  0  0  0  0  0  0
    4.3262    0.9383   -1.6711 H   0  0  0  0  0  0  0  0  0  0  0  0
    4.7454    0.9740    0.6846 H   0  0  0  0  0  0  0  0  0  0  0  0
    1.0933   -3.9257    2.6638 H   0  0  0  0  0  0  0  0  0  0  0  0
   -2.0356   -2.2298   -0.1958 H   0  0  0  0  0  0  0  0  0  0  0  0
   -1.8492   -0.5162    0.1793 H   0  0  0  0  0  0  0  0  0  0  0  0
    4.8051   -1.2135    2.0538 H   0  0  0  0  0  0  0  0  0  0  0  0
    3.2305   -2.8724    2.7905 H   0  0  0  0  0  0  0  0  0  0  0  0
   -0.5660   -4.0265   -0.8180 H   0  0  0  0  0  0  0  0  0  0  0  0
    0.1485   -5.0396    0.4249 H   0  0  0  0  0  0  0  0  0  0  0  0
    1.1947   -4.2055   -0.7276 H   0  0  0  0  0  0  0  0  0  0  0  0
   -2.4793    0.0439   -2.1649 H   0  0  0  0  0  0  0  0  0  0  0  0
   -4.4914   -1.9820   -1.0744 H   0  0  0  0  0  0  0  0  0  0  0  0
   -4.7949   -0.7355   -2.2646 H   0  0  0  0  0  0  0  0  0  0  0  0
    6.1880   -1.2016   -0.4392 H   0  0  0  0  0  0  0  0  0  0  0  0
   -4.0199   -0.1849    0.6663 H   0  0  0  0  0  0  0  0  0  0  0  0
    2.9838    2.7641    1.2701 H   0  0  0  0  0  0  0  0  0  0  0  0
   -2.7216   -2.7711   -2.4487 H   0  0  0  0  0  0  0  0  0  0  0  0
   -6.6774    0.1129   -0.8300 H   0  0  0  0  0  0  0  0  0  0  0  0
   -6.3537   -1.1115    0.4228 H   0  0  0  0  0  0  0  0  0  0  0  0
    0.8594    4.5438   -0.0731 H   0  0  0  0  0  0  0  0  0  0  0  0
    1.4561    4.7170    1.5783 H   0  0  0  0  0  0  0  0  0  0  0  0
    4.5385    3.7998   -0.3696 H   0  0  0  0  0  0  0  0  0  0  0  0
    3.8573    5.0025    0.7379 H   0  0  0  0  0  0  0  0  0  0  0  0
    3.2558    4.8844   -0.9238 H   0  0  0  0  0  0  0  0  0  0  0  0
   -4.8434    1.5181   -1.4645 H   0  0  0  0  0  0  0  0  0  0  0  0
   -0.1565    2.3612    0.4585 H   0  0  0  0  0  0  0  0  0  0  0  0
   -0.6729    3.5597    1.6438 H   0  0  0  0  0  0  0  0  0  0  0  0
    0.5750    2.3816    2.0796 H   0  0  0  0  0  0  0  0  0  0  0  0
   -8.0345    1.9714    1.6687 H   0  0  0  0  0  0  0  0  0  0  0  0
  1 10  1  0  0  0  0
  1 23  1  0  0  0  0
  2 15  1  0  0  0  0
  2 51  1  0  0  0  0
  3 21  1  0  0  0  0
  3 54  1  0  0  0  0
  4 23  2  0  0  0  0
  5 24  1  0  0  0  0
  5 62  1  0  0  0  0
  6 30  1  0  0  0  0
  6 66  1  0  0  0  0
  7 30  2  0  0  0  0
  8  9  1  0  0  0  0
  8 10  1  0  0  0  0
  8 13  1  0  0  0  0
  8 31  1  0  0  0  0
  9 11  1  0  0  0  0
  9 12  1  0  0  0  0
  9 32  1  0  0  0  0
 10 14  1  0  0  0  0
 10 33  1  0  0  0  0
 11 16  1  0  0  0  0
 11 20  1  0  0  0  0
 11 34  1  0  0  0  0
 12 17  1  0  0  0  0
 12 35  1  0  0  0  0
 12 36  1  0  0  0  0
 13 18  2  0  0  0  0
 13 19  1  0  0  0  0
 14 15  1  0  0  0  0
 14 37  1  0  0  0  0
 14 38  1  0  0  0  0
 15 18  1  0  0  0  0
 15 39  1  0  0  0  0
 16 19  2  0  0  0  0
 16 40  1  0  0  0  0
 17 21  1  0  0  0  0
 17 41  1  0  0  0  0
 17 42  1  0  0  0  0
 18 43  1  0  0  0  0
 19 44  1  0  0  0  0
 20 45  1  0  0  0  0
 20 46  1  0  0  0  0
 20 47  1  0  0  0  0
 21 22  1  0  0  0  0
 21 48  1  0  0  0  0
 22 24  1  0  0  0  0
 22 49  1  0  0  0  0
 22 50  1  0  0  0  0
 23 25  1  0  0  0  0
 24 26  1  0  0  0  0
 24 52  1  0  0  0  0
 25 27  1  0  0  0  0
 25 28  1  0  0  0  0
 25 53  1  0  0  0  0
 26 30  1  0  0  0  0
 26 55  1  0  0  0  0
 26 56  1  0  0  0  0
 27 29  1  0  0  0  0
 27 57  1  0  0  0  0
 27 58  1  0  0  0  0
 28 59  1  0  0  0  0
 28 60  1  0  0  0  0
 28 61  1  0  0  0  0
 29 63  1  0  0  0  0
 29 64  1  0  0  0  0
 29 65  1  0  0  0  0
M  END
> <PUBCHEM_COMPOUND_CID>
54687

> <PUBCHEM_CONFORMER_RMSD>
1

> <PUBCHEM_CONFORMER_DIVERSEORDER>
1
194
129
112
123
78
66
179
157
131
82
162
142
43
156
115
132
103
72
34
71
35
150
97
19
101
168
107
106
120
91
77
63
46
140
92
54
126
163
138
181
74
45
75
127
10
159
28
122
100
89
36
86
49
70
37
88
149
187
143
137
171
84
87
133
14
68
5
95
105
166
141
128
47
58
108
76
151
117
64
167
172
192
147
184
18
190
96
180
2
185
80
111
98
48
81
21
94
39
173
152
135
67
164
175
196
158
85
161
27
121
104
15
169
174
119
69
134
29
125
30
56
124
145
189
41
60
33
178
186
176
4
102
32
83
136
38
24
110
153
146
40
155
57
79
165
61
53
23
188
177
93
44
42
139
116
144
6
52
73
12
59
50
55
99
9
20
148
7
17
16
154
62
113
3
65
193
11
22
182
8
130
25
170
195
13
118
109
114
51
31
90
160
191
183
26

> <PUBCHEM_MMFF94_PARTIAL_CHARGES>
28
1 -0.43
10 0.28
11 0.14
13 -0.14
15 0.42
16 -0.29
18 -0.29
19 -0.15
2 -0.68
21 0.28
23 0.66
24 0.28
25 0.06
26 0.06
3 -0.68
30 0.66
4 -0.57
40 0.15
43 0.15
44 0.15
5 -0.68
51 0.4
54 0.4
6 -0.65
62 0.4
66 0.5
7 -0.57
8 0.14

> <PUBCHEM_EFFECTIVE_ROTOR_COUNT>
12

> <PUBCHEM_PHARMACOPHORE_FEATURES>
14
1 2 acceptor
1 2 donor
1 28 hydrophobe
1 29 hydrophobe
1 3 acceptor
1 3 donor
1 4 acceptor
1 5 acceptor
1 5 donor
1 6 acceptor
1 7 acceptor
3 6 7 30 anion
6 8 10 13 14 15 18 rings
6 8 9 11 13 16 19 rings

> <PUBCHEM_HEAVY_ATOM_COUNT>
30

> <PUBCHEM_ATOM_DEF_STEREO_COUNT>
8

> <PUBCHEM_ATOM_UDEF_STEREO_COUNT>
0

> <PUBCHEM_BOND_DEF_STEREO_COUNT>
0

> <PUBCHEM_BOND_UDEF_STEREO_COUNT>
0

> <PUBCHEM_ISOTOPIC_ATOM_COUNT>
0

> <PUBCHEM_COMPONENT_COUNT>
1

> <PUBCHEM_CACTVS_TAUTO_COUNT>
1

> <PUBCHEM_CONFORMER_ID>
0000D59F00000001

> <PUBCHEM_MMFF94_ENERGY>
52.9867

> <PUBCHEM_FEATURE_SELFOVERLAP>
71.125

> <PUBCHEM_SHAPE_FINGERPRINT>
10165383 225 17676779746522911974
10674148 151 18272376348268555358
10906281 52 18339646767331168180
1100329 8 18336537331093836026
11578080 2 17606976254791490908
11646440 116 18336540543634460474
11828532 37 15769481115608341151
13140716 1 17971176274299134562
13583140 156 18114731622135913759
146900 427 18334017185871069643
14849402 71 18261674869576364236
14955137 171 18338234860556179398
15001296 14 18272373096530140241
15081414 286 18339355263068075910
15297060 5 16629693842682191035
15475509 8 18200886093287015574
16112460 7 18343309192449049856
19752476 56 18199749318132757924
21591340 35 18269268139648182016
21927370 108 17463960273427815266
22122407 14 18339375084938265881
23558518 356 17829042465995162062
23559900 14 10447343425136431895
3178227 256 18113903753856204016
373842 8 17906730303002729385
38570 142 18267320874369170485
474144 1 18272091570150744937
5252454 2 18042122235752226822
57527295 17 18051979409878761198
57527573 199 18053655065278562976
5895379 119 17418106424299855896

> <PUBCHEM_SHAPE_MULTIPOLES>
576.3
13.49
5.15
1.86
26.93
2.83
0.22
6.16
-3.16
-5.13
-1.62
1.08
-0.62
-2.89

> <PUBCHEM_SHAPE_SELFOVERLAP>
1169.049

> <PUBCHEM_SHAPE_VOLUME>
330

> <PUBCHEM_COORDINATE_TYPE>
2
5
10

$$$$