127042922
  -OEChem-03242010103D

 56 59  0     0  0  0  0  0  0999 V2000
    2.1568    0.7934    0.2623 O   0  0  0  0  0  0  0  0  0  0  0  0
    3.5117   -3.0392    0.4568 O   0  0  0  0  0  0  0  0  0  0  0  0
    5.9849   -2.1733    0.0652 O   0  0  0  0  0  0  0  0  0  0  0  0
   -8.6899   -0.9971    0.2998 O   0  0  0  0  0  0  0  0  0  0  0  0
    6.5222    2.5173   -0.4515 O   0  0  0  0  0  0  0  0  0  0  0  0
   -2.6766    1.0306    0.1816 N   0  0  0  0  0  0  0  0  0  0  0  0
   -0.0231    0.0800    0.6050 N   0  0  0  0  0  0  0  0  0  0  0  0
   -2.2206   -0.2200   -0.4428 C   0  0  0  0  0  0  0  0  0  0  0  0
   -1.5563    1.9729    0.3148 C   0  0  0  0  0  0  0  0  0  0  0  0
   -0.4327    1.3696    1.1600 C   0  0  0  0  0  0  0  0  0  0  0  0
   -1.1117   -0.8715    0.3858 C   0  0  0  0  0  0  0  0  0  0  0  0
   -3.7607    1.6279   -0.5972 C   0  0  0  0  0  0  0  0  0  0  0  0
    1.2886   -0.2718    0.4732 C   0  0  0  0  0  0  0  0  0  0  0  0
   -5.0730    0.9294   -0.3589 C   0  0  0  0  0  0  0  0  0  0  0  0
    1.7021   -1.5482    0.5427 C   0  0  0  0  0  0  0  0  0  0  0  0
    3.4974    0.5415    0.1179 C   0  0  0  0  0  0  0  0  0  0  0  0
    4.0370   -0.7415    0.1728 C   0  0  0  0  0  0  0  0  0  0  0  0
    3.1326   -1.8780    0.3942 C   0  0  0  0  0  0  0  0  0  0  0  0
   -5.6008    0.8586    0.9303 C   0  0  0  0  0  0  0  0  0  0  0  0
   -5.7608    0.3528   -1.4266 C   0  0  0  0  0  0  0  0  0  0  0  0
    5.4112   -0.9388    0.0192 C   0  0  0  0  0  0  0  0  0  0  0  0
    4.3323    1.6394   -0.0919 C   0  0  0  0  0  0  0  0  0  0  0  0
   -6.8165    0.2116    1.1517 C   0  0  0  0  0  0  0  0  0  0  0  0
   -6.9764   -0.2943   -1.2055 C   0  0  0  0  0  0  0  0  0  0  0  0
   -7.5043   -0.3649    0.0838 C   0  0  0  0  0  0  0  0  0  0  0  0
    5.7057    1.4476   -0.2462 C   0  0  0  0  0  0  0  0  0  0  0  0
    6.2439    0.1612   -0.1905 C   0  0  0  0  0  0  0  0  0  0  0  0
    6.1003   -2.8806   -1.1682 C   0  0  0  0  0  0  0  0  0  0  0  0
   -9.3392   -1.5652   -0.8369 C   0  0  0  0  0  0  0  0  0  0  0  0
    7.9159    2.2504   -0.6010 C   0  0  0  0  0  0  0  0  0  0  0  0
   -1.1661    2.2517   -0.6734 H   0  0  0  0  0  0  0  0  0  0  0  0
   -3.0450   -0.9384   -0.5200 H   0  0  0  0  0  0  0  0  0  0  0  0
   -1.8527   -0.0328   -1.4609 H   0  0  0  0  0  0  0  0  0  0  0  0
   -1.8956    2.8926    0.8066 H   0  0  0  0  0  0  0  0  0  0  0  0
    0.3924    2.0892    1.2095 H   0  0  0  0  0  0  0  0  0  0  0  0
   -0.7776    1.2188    2.1911 H   0  0  0  0  0  0  0  0  0  0  0  0
   -1.5030   -1.2075    1.3543 H   0  0  0  0  0  0  0  0  0  0  0  0
   -0.7917   -1.7622   -0.1663 H   0  0  0  0  0  0  0  0  0  0  0  0
   -3.5136    1.6650   -1.6667 H   0  0  0  0  0  0  0  0  0  0  0  0
   -3.9171    2.6726   -0.2936 H   0  0  0  0  0  0  0  0  0  0  0  0
    1.0423   -2.3864    0.7335 H   0  0  0  0  0  0  0  0  0  0  0  0
   -5.0794    1.3078    1.7715 H   0  0  0  0  0  0  0  0  0  0  0  0
   -5.3598    0.3997   -2.4357 H   0  0  0  0  0  0  0  0  0  0  0  0
    3.9158    2.6426   -0.1356 H   0  0  0  0  0  0  0  0  0  0  0  0
   -7.2233    0.1605    2.1580 H   0  0  0  0  0  0  0  0  0  0  0  0
   -7.4573   -0.7204   -2.0794 H   0  0  0  0  0  0  0  0  0  0  0  0
    7.3033   -0.0462   -0.3021 H   0  0  0  0  0  0  0  0  0  0  0  0
    6.3827   -3.9132   -0.9460 H   0  0  0  0  0  0  0  0  0  0  0  0
    6.8837   -2.4287   -1.7846 H   0  0  0  0  0  0  0  0  0  0  0  0
    5.1538   -2.8859   -1.7181 H   0  0  0  0  0  0  0  0  0  0  0  0
  -10.2665   -2.0269   -0.4821 H   0  0  0  0  0  0  0  0  0  0  0  0
   -8.7376   -2.3618   -1.2876 H   0  0  0  0  0  0  0  0  0  0  0  0
   -9.6227   -0.7968   -1.5642 H   0  0  0  0  0  0  0  0  0  0  0  0
    8.4139    3.2131   -0.7564 H   0  0  0  0  0  0  0  0  0  0  0  0
    8.1164    1.6407   -1.4885 H   0  0  0  0  0  0  0  0  0  0  0  0
    8.3423    1.8141    0.3087 H   0  0  0  0  0  0  0  0  0  0  0  0
  1 13  1  0  0  0  0
  1 16  1  0  0  0  0
  2 18  2  0  0  0  0
  3 21  1  0  0  0  0
  3 28  1  0  0  0  0
  4 25  1  0  0  0  0
  4 29  1  0  0  0  0
  5 26  1  0  0  0  0
  5 30  1  0  0  0  0
  6  8  1  0  0  0  0
  6  9  1  0  0  0  0
  6 12  1  0  0  0  0
  7 10  1  0  0  0  0
  7 11  1  0  0  0  0
  7 13  1  0  0  0  0
  8 11  1  0  0  0  0
  8 32  1  0  0  0  0
  8 33  1  0  0  0  0
  9 10  1  0  0  0  0
  9 31  1  0  0  0  0
  9 34  1  0  0  0  0
 10 35  1  0  0  0  0
 10 36  1  0  0  0  0
 11 37  1  0  0  0  0
 11 38  1  0  0  0  0
 12 14  1  0  0  0  0
 12 39  1  0  0  0  0
 12 40  1  0  0  0  0
 13 15  2  0  0  0  0
 14 19  2  0  0  0  0
 14 20  1  0  0  0  0
 15 18  1  0  0  0  0
 15 41  1  0  0  0  0
 16 17  2  0  0  0  0
 16 22  1  0  0  0  0
 17 18  1  0  0  0  0
 17 21  1  0  0  0  0
 19 23  1  0  0  0  0
 19 42  1  0  0  0  0
 20 24  2  0  0  0  0
 20 43  1  0  0  0  0
 21 27  2  0  0  0  0
 22 26  2  0  0  0  0
 22 44  1  0  0  0  0
 23 25  2  0  0  0  0
 23 45  1  0  0  0  0
 24 25  1  0  0  0  0
 24 46  1  0  0  0  0
 26 27  1  0  0  0  0
 27 47  1  0  0  0  0
 28 48  1  0  0  0  0
 28 49  1  0  0  0  0
 28 50  1  0  0  0  0
 29 51  1  0  0  0  0
 29 52  1  0  0  0  0
 29 53  1  0  0  0  0
 30 54  1  0  0  0  0
 30 55  1  0  0  0  0
 30 56  1  0  0  0  0
M  END
> <PUBCHEM_COMPOUND_CID>
127042922

> <PUBCHEM_CONFORMER_RMSD>
1

> <PUBCHEM_CONFORMER_DIVERSEORDER>
2
21
19
20
4
14
6
27
8
23
10
16
9
24
22
13
25
7
11
15
18
3
5
1
26
12
17

> <PUBCHEM_MMFF94_PARTIAL_CHARGES>
37
1 -0.16
10 0.37
11 0.37
12 0.41
13 0.18
14 -0.14
15 -0.14
16 0.08
17 0.09
18 0.47
19 -0.15
2 -0.57
20 -0.15
21 0.08
22 -0.15
23 -0.15
24 -0.15
25 0.08
26 0.08
27 -0.15
28 0.28
29 0.28
3 -0.36
30 0.28
4 -0.36
41 0.15
42 0.15
43 0.15
44 0.15
45 0.15
46 0.15
47 0.15
5 -0.36
6 -0.81
7 -0.84
8 0.27
9 0.27

> <PUBCHEM_EFFECTIVE_ROTOR_COUNT>
7.2

> <PUBCHEM_PHARMACOPHORE_FEATURES>
11
1 1 acceptor
1 2 acceptor
1 3 acceptor
1 4 acceptor
1 5 acceptor
1 6 cation
1 7 cation
6 1 13 15 16 17 18 rings
6 14 19 20 23 24 25 rings
6 16 17 21 22 26 27 rings
6 6 7 8 9 10 11 rings

> <PUBCHEM_HEAVY_ATOM_COUNT>
30

> <PUBCHEM_ATOM_DEF_STEREO_COUNT>
0

> <PUBCHEM_ATOM_UDEF_STEREO_COUNT>
0

> <PUBCHEM_BOND_DEF_STEREO_COUNT>
0

> <PUBCHEM_BOND_UDEF_STEREO_COUNT>
0

> <PUBCHEM_ISOTOPIC_ATOM_COUNT>
0

> <PUBCHEM_COMPONENT_COUNT>
1

> <PUBCHEM_CACTVS_TAUTO_COUNT>
1

> <PUBCHEM_CONFORMER_ID>
0792856A00000002

> <PUBCHEM_MMFF94_ENERGY>
115.6313

> <PUBCHEM_FEATURE_SELFOVERLAP>
55.863

> <PUBCHEM_SHAPE_FINGERPRINT>
10 15 17530963618217027528
10299344 5 18131070433596493067
10391435 84 17894912979755294043
10595046 47 18411981321438873409
10677351 14 18335984182303192325
10693767 8 18054230930610243022
11007060 377 18041003917116698473
11315181 36 13623537840654664093
11497681 19 18411415133944845567
12166972 35 18335424538784317108
12236239 1 18202283563337758328
12730499 353 18187085027445586906
13533116 47 18271805697090352520
1361 4 18413950586025834207
13782708 43 17677892323045829459
13835254 42 18339923710923358624
13914758 101 8935008075047445735
14251764 18 17988923384261456167
14294032 229 15912230619510078457
14347424 109 8430314628585056806
14856354 85 17131832097573948509
150020 25 18040151804021000319
15064986 266 18337965505966232489
15142383 8 9871744698259134658
15183329 4 17632574950985551181
15348495 7 12391211847613981501
15461852 350 13767934525008130529
1577012 14 18201727219112941649
18335252 98 18335423491122792659
18365409 1 18265055919482582062
18608769 82 18261956348921609571
20105231 36 14764634131379113141
20157964 124 18407760335803372620
20554085 129 15646766803779324240
21049683 271 18340767134856858265
21150785 3 18343020021333308905
21267235 1 18271808973522651754
21403212 168 7853583400147176441
22149856 69 18059860515494065403
23081809 10 17988926643392866241
23389318 12 18410287052168210463
23424782 7 18186523220011352019
23516275 137 17774183226876122775
23522609 53 17845113838311160689
23569917 315 18268994194404022010
24771750 20 17754468068118921205
255183 451 17912934881641960902
27425 322 16588314955527083256
335352 9 18408611341229998918
34797466 226 18272093781879099276
4073 2 18113904891653825034
4258327 124 17314247707455386524
4325135 7 18335420192746340349
445580 167 18409164433173289677
44880568 143 17313383392859008229
45377200 153 16773237417813710535
46194498 28 18268993094875388294
54039377 194 17988364750560874478
5470011 282 18408599258553331941
6394761 36 10591768688106956313
9831232 110 17701549406834231398
999808 66 18408891755081184387

> <PUBCHEM_SHAPE_MULTIPOLES>
578.08
27
2.59
1.02
30.47
0.84
-0.09
2.88
-6.23
-5.49
-0.29
1.07
0.03
-0.78

> <PUBCHEM_SHAPE_SELFOVERLAP>
1248.787

> <PUBCHEM_SHAPE_VOLUME>
319.8

> <PUBCHEM_COORDINATE_TYPE>
2
5
10

$$$$