127038213
  -OEChem-03242010103D

 42 44  0     0  0  0  0  0  0999 V2000
   -0.3648   -0.6193   -0.1805 O   0  0  0  0  0  0  0  0  0  0  0  0
    3.7329    1.9030    0.4036 O   0  0  0  0  0  0  0  0  0  0  0  0
    1.3527    3.0499    0.2055 O   0  0  0  0  0  0  0  0  0  0  0  0
    3.8177   -2.8394    0.1602 O   0  0  0  0  0  0  0  0  0  0  0  0
   -2.4674    0.3421   -0.3607 N   0  0  0  0  0  0  0  0  0  0  0  0
   -5.1979   -0.4088   -0.0377 N   0  0  0  0  0  0  0  0  0  0  0  0
   -3.4579    1.3450    0.0290 C   0  0  0  0  0  0  0  0  0  0  0  0
   -3.0027   -0.7978   -1.1040 C   0  0  0  0  0  0  0  0  0  0  0  0
   -4.1746   -1.4194   -0.3416 C   0  0  0  0  0  0  0  0  0  0  0  0
   -4.6199    0.6775    0.7670 C   0  0  0  0  0  0  0  0  0  0  0  0
   -1.1272    0.5430   -0.2023 C   0  0  0  0  0  0  0  0  0  0  0  0
   -6.3303   -1.0176    0.6592 C   0  0  0  0  0  0  0  0  0  0  0  0
   -0.5927    1.7693   -0.0776 C   0  0  0  0  0  0  0  0  0  0  0  0
    0.9946   -0.5214   -0.0262 C   0  0  0  0  0  0  0  0  0  0  0  0
    1.6554    0.6971    0.1114 C   0  0  0  0  0  0  0  0  0  0  0  0
    0.8636    1.9347    0.0915 C   0  0  0  0  0  0  0  0  0  0  0  0
    3.0431    0.7367    0.2655 C   0  0  0  0  0  0  0  0  0  0  0  0
    1.7208   -1.7125   -0.0101 C   0  0  0  0  0  0  0  0  0  0  0  0
    3.1071   -1.6785    0.1439 C   0  0  0  0  0  0  0  0  0  0  0  0
    3.7667   -0.4562    0.2812 C   0  0  0  0  0  0  0  0  0  0  0  0
    4.1994    2.5253   -0.7922 C   0  0  0  0  0  0  0  0  0  0  0  0
    3.0815   -4.0529    0.0150 C   0  0  0  0  0  0  0  0  0  0  0  0
   -2.2513   -1.5751   -1.2838 H   0  0  0  0  0  0  0  0  0  0  0  0
   -3.3369   -0.4528   -2.0910 H   0  0  0  0  0  0  0  0  0  0  0  0
   -3.8201    1.8667   -0.8658 H   0  0  0  0  0  0  0  0  0  0  0  0
   -3.0506    2.1021    0.7083 H   0  0  0  0  0  0  0  0  0  0  0  0
   -3.8058   -1.8870    0.5813 H   0  0  0  0  0  0  0  0  0  0  0  0
   -5.3830    1.4387    0.9697 H   0  0  0  0  0  0  0  0  0  0  0  0
   -4.2702    0.2961    1.7360 H   0  0  0  0  0  0  0  0  0  0  0  0
   -4.6071   -2.2134   -0.9623 H   0  0  0  0  0  0  0  0  0  0  0  0
   -7.1106   -0.2721    0.8486 H   0  0  0  0  0  0  0  0  0  0  0  0
   -6.0379   -1.4620    1.6174 H   0  0  0  0  0  0  0  0  0  0  0  0
   -6.7864   -1.7991    0.0414 H   0  0  0  0  0  0  0  0  0  0  0  0
   -1.1696    2.6857   -0.1196 H   0  0  0  0  0  0  0  0  0  0  0  0
    1.1538   -2.6309   -0.1213 H   0  0  0  0  0  0  0  0  0  0  0  0
    4.8473   -0.4365    0.4016 H   0  0  0  0  0  0  0  0  0  0  0  0
    3.4042    2.6037   -1.5405 H   0  0  0  0  0  0  0  0  0  0  0  0
    5.0400    1.9580   -1.2037 H   0  0  0  0  0  0  0  0  0  0  0  0
    4.5460    3.5317   -0.5421 H   0  0  0  0  0  0  0  0  0  0  0  0
    3.8039   -4.8750    0.0507 H   0  0  0  0  0  0  0  0  0  0  0  0
    2.5836   -4.1078   -0.9590 H   0  0  0  0  0  0  0  0  0  0  0  0
    2.3853   -4.2036    0.8471 H   0  0  0  0  0  0  0  0  0  0  0  0
  1 11  1  0  0  0  0
  1 14  1  0  0  0  0
  2 17  1  0  0  0  0
  2 21  1  0  0  0  0
  3 16  2  0  0  0  0
  4 19  1  0  0  0  0
  4 22  1  0  0  0  0
  5  7  1  0  0  0  0
  5  8  1  0  0  0  0
  5 11  1  0  0  0  0
  6  9  1  0  0  0  0
  6 10  1  0  0  0  0
  6 12  1  0  0  0  0
  7 10  1  0  0  0  0
  7 25  1  0  0  0  0
  7 26  1  0  0  0  0
  8  9  1  0  0  0  0
  8 23  1  0  0  0  0
  8 24  1  0  0  0  0
  9 27  1  0  0  0  0
  9 30  1  0  0  0  0
 10 28  1  0  0  0  0
 10 29  1  0  0  0  0
 11 13  2  0  0  0  0
 12 31  1  0  0  0  0
 12 32  1  0  0  0  0
 12 33  1  0  0  0  0
 13 16  1  0  0  0  0
 13 34  1  0  0  0  0
 14 15  2  0  0  0  0
 14 18  1  0  0  0  0
 15 16  1  0  0  0  0
 15 17  1  0  0  0  0
 17 20  2  0  0  0  0
 18 19  2  0  0  0  0
 18 35  1  0  0  0  0
 19 20  1  0  0  0  0
 20 36  1  0  0  0  0
 21 37  1  0  0  0  0
 21 38  1  0  0  0  0
 21 39  1  0  0  0  0
 22 40  1  0  0  0  0
 22 41  1  0  0  0  0
 22 42  1  0  0  0  0
M  END
> <PUBCHEM_COMPOUND_CID>
127038213

> <PUBCHEM_CONFORMER_RMSD>
0.6

> <PUBCHEM_CONFORMER_DIVERSEORDER>
1
12
4
10
11
6
9
7
5
8
2
3

> <PUBCHEM_MMFF94_PARTIAL_CHARGES>
25
1 -0.16
10 0.27
11 0.18
12 0.27
13 -0.14
14 0.08
15 0.09
16 0.47
17 0.08
18 -0.15
19 0.08
2 -0.36
20 -0.15
21 0.28
22 0.28
3 -0.57
34 0.15
35 0.15
36 0.15
4 -0.36
5 -0.84
6 -0.81
7 0.37
8 0.37
9 0.27

> <PUBCHEM_EFFECTIVE_ROTOR_COUNT>
4.2

> <PUBCHEM_PHARMACOPHORE_FEATURES>
9
1 1 acceptor
1 2 acceptor
1 3 acceptor
1 4 acceptor
1 5 cation
1 6 cation
6 1 11 13 14 15 16 rings
6 14 15 17 18 19 20 rings
6 5 6 7 8 9 10 rings

> <PUBCHEM_HEAVY_ATOM_COUNT>
22

> <PUBCHEM_ATOM_DEF_STEREO_COUNT>
0

> <PUBCHEM_ATOM_UDEF_STEREO_COUNT>
0

> <PUBCHEM_BOND_DEF_STEREO_COUNT>
0

> <PUBCHEM_BOND_UDEF_STEREO_COUNT>
0

> <PUBCHEM_ISOTOPIC_ATOM_COUNT>
0

> <PUBCHEM_COMPONENT_COUNT>
1

> <PUBCHEM_CACTVS_TAUTO_COUNT>
1

> <PUBCHEM_CONFORMER_ID>
0792730500000001

> <PUBCHEM_MMFF94_ENERGY>
82.6072

> <PUBCHEM_FEATURE_SELFOVERLAP>
45.712

> <PUBCHEM_SHAPE_FINGERPRINT>
10411042 1 18122343485058351578
10616163 171 18198340865323339127
10622 236 17772156882923028063
10967382 1 18411131476728972940
12107183 9 17982178820875527169
12236239 1 17988928907541997529
12293681 25 17896058627172840146
12553582 1 18195798575233233862
12730499 353 18336273452049517394
12788726 201 17489039192647402657
13009979 54 17845378734897906274
13140716 1 17981314900593089464
13167823 11 18412543185187315027
13533116 47 18413107282224045643
13551218 46 18412827967726894771
13785724 45 17912095949320593167
138480 1 18338795603243868572
13955234 65 18413103983345978970
14178342 30 17840841265185131146
14341114 176 18412269454268468331
14790565 3 18049165767565149420
14863182 85 18408603699707647806
14866123 147 17404301798378503507
15042514 8 17330834617865817370
15196674 1 18411136914184131801
15250474 111 18200863093563643831
15375462 189 18201714068007054649
15442244 35 18341612551633518505
15475509 84 17773880792020612641
15537594 2 18200878486657094223
17492 89 18338796702360357739
17844677 252 18338522945724363725
1813 80 17530969077178360117
20281475 54 18412540985842182653
20645477 70 18333728013774628074
20739085 24 18339933627252791052
21065198 48 18272375269967740401
21065198 57 18338233739722098293
21267235 1 18412550894458361054
221490 88 18336827494219739014
22950370 63 18267028262552855671
23559900 14 18267012869606162778
239999 70 17967531285488238138
312423 11 18270410386099955640
314194 84 18341609343688697623
335352 9 18051691049552776333
33824 294 18409445916692332104
3421961 26 18411697647538893618
4073 2 18115030826748418587
5104073 3 18342458102240656737
77779 3 18411136918441987441
7970288 3 18120652431458333187
8272917 22 18411140268173658604
8863177 126 18187660119340619835
9709674 26 18335140912397905531

> <PUBCHEM_SHAPE_MULTIPOLES>
419.31
11.19
3.47
0.76
14.23
1.75
-0.06
3.13
1.17
-5.47
-0.04
0.3
-0.03
-0.48

> <PUBCHEM_SHAPE_SELFOVERLAP>
897.947

> <PUBCHEM_SHAPE_VOLUME>
235.4

> <PUBCHEM_COORDINATE_TYPE>
2
5
10

$$$$