127042802
  -OEChem-03242010103D

 54 57  0     0  0  0  0  0  0999 V2000
    2.4612    0.7899    0.2776 O   0  0  0  0  0  0  0  0  0  0  0  0
    3.7675   -3.0634    0.3664 O   0  0  0  0  0  0  0  0  0  0  0  0
    6.2570   -2.2154    0.0455 O   0  0  0  0  0  0  0  0  0  0  0  0
    6.8581    2.4827   -0.3048 O   0  0  0  0  0  0  0  0  0  0  0  0
   -9.0502   -1.3624   -0.9206 O   0  5  0  0  0  0  0  0  0  0  0  0
   -8.9367   -0.9761    1.2374 O   0  0  0  0  0  0  0  0  0  0  0  0
   -2.3670    1.0891    0.1239 N   0  0  0  0  0  0  0  0  0  0  0  0
    0.2675    0.0925    0.5596 N   0  0  0  0  0  0  0  0  0  0  0  0
   -8.4585   -0.8911    0.0804 N   0  3  0  0  0  0  0  0  0  0  0  0
   -1.2381    2.0127    0.3073 C   0  0  0  0  0  0  0  0  0  0  0  0
   -1.9151   -0.1455   -0.5343 C   0  0  0  0  0  0  0  0  0  0  0  0
   -0.8283   -0.8378    0.2906 C   0  0  0  0  0  0  0  0  0  0  0  0
   -0.1364    1.3678    1.1506 C   0  0  0  0  0  0  0  0  0  0  0  0
   -3.4305    1.7253   -0.6525 C   0  0  0  0  0  0  0  0  0  0  0  0
    1.5771   -0.2709    0.4382 C   0  0  0  0  0  0  0  0  0  0  0  0
   -4.7547    1.0355   -0.4597 C   0  0  0  0  0  0  0  0  0  0  0  0
    1.9743   -1.5539    0.4719 C   0  0  0  0  0  0  0  0  0  0  0  0
    3.8010    0.5265    0.1474 C   0  0  0  0  0  0  0  0  0  0  0  0
    4.3245   -0.7642    0.1683 C   0  0  0  0  0  0  0  0  0  0  0  0
    3.4031   -1.8962    0.3363 C   0  0  0  0  0  0  0  0  0  0  0  0
   -5.4308    0.5033   -1.5576 C   0  0  0  0  0  0  0  0  0  0  0  0
   -5.3058    0.9290    0.8173 C   0  0  0  0  0  0  0  0  0  0  0  0
    5.6988   -0.9731    0.0312 C   0  0  0  0  0  0  0  0  0  0  0  0
    4.6522    1.6204   -0.0116 C   0  0  0  0  0  0  0  0  0  0  0  0
   -6.6580   -0.1352   -1.3786 C   0  0  0  0  0  0  0  0  0  0  0  0
   -6.5329    0.2906    0.9964 C   0  0  0  0  0  0  0  0  0  0  0  0
   -7.2090   -0.2415   -0.1016 C   0  0  0  0  0  0  0  0  0  0  0  0
    6.0257    1.4170   -0.1492 C   0  0  0  0  0  0  0  0  0  0  0  0
    6.5477    0.1229   -0.1275 C   0  0  0  0  0  0  0  0  0  0  0  0
    6.3853   -2.8826   -1.2088 C   0  0  0  0  0  0  0  0  0  0  0  0
    8.2510    2.2039   -0.4397 C   0  0  0  0  0  0  0  0  0  0  0  0
   -1.5276    0.0710   -1.5392 H   0  0  0  0  0  0  0  0  0  0  0  0
   -2.7464   -0.8507   -0.6493 H   0  0  0  0  0  0  0  0  0  0  0  0
   -0.8278    2.3193   -0.6643 H   0  0  0  0  0  0  0  0  0  0  0  0
   -1.5750    2.9196    0.8239 H   0  0  0  0  0  0  0  0  0  0  0  0
    0.6961    2.0751    1.2379 H   0  0  0  0  0  0  0  0  0  0  0  0
   -0.5007    1.1870    2.1702 H   0  0  0  0  0  0  0  0  0  0  0  0
   -1.2401   -1.2010    1.2405 H   0  0  0  0  0  0  0  0  0  0  0  0
   -0.5093   -1.7135   -0.2856 H   0  0  0  0  0  0  0  0  0  0  0  0
   -3.1646    1.7949   -1.7158 H   0  0  0  0  0  0  0  0  0  0  0  0
   -3.5798    2.7613   -0.3168 H   0  0  0  0  0  0  0  0  0  0  0  0
    1.3015   -2.3898    0.6234 H   0  0  0  0  0  0  0  0  0  0  0  0
   -5.0126    0.5781   -2.5578 H   0  0  0  0  0  0  0  0  0  0  0  0
   -4.7933    1.3438    1.6814 H   0  0  0  0  0  0  0  0  0  0  0  0
    4.2483    2.6296   -0.0286 H   0  0  0  0  0  0  0  0  0  0  0  0
   -7.1561   -0.5381   -2.2568 H   0  0  0  0  0  0  0  0  0  0  0  0
   -6.9325    0.2275    2.0054 H   0  0  0  0  0  0  0  0  0  0  0  0
    7.6064   -0.0937   -0.2282 H   0  0  0  0  0  0  0  0  0  0  0  0
    6.6516   -3.9255   -1.0165 H   0  0  0  0  0  0  0  0  0  0  0  0
    7.1844   -2.4202   -1.7965 H   0  0  0  0  0  0  0  0  0  0  0  0
    5.4483   -2.8580   -1.7744 H   0  0  0  0  0  0  0  0  0  0  0  0
    8.7628    3.1650   -0.5545 H   0  0  0  0  0  0  0  0  0  0  0  0
    8.4595    1.6216   -1.3437 H   0  0  0  0  0  0  0  0  0  0  0  0
    8.6565    1.7323    0.4619 H   0  0  0  0  0  0  0  0  0  0  0  0
  1 15  1  0  0  0  0
  1 18  1  0  0  0  0
  2 20  2  0  0  0  0
  3 23  1  0  0  0  0
  3 30  1  0  0  0  0
  4 28  1  0  0  0  0
  4 31  1  0  0  0  0
  5  9  1  0  0  0  0
  6  9  2  0  0  0  0
  7 10  1  0  0  0  0
  7 11  1  0  0  0  0
  7 14  1  0  0  0  0
  8 12  1  0  0  0  0
  8 13  1  0  0  0  0
  8 15  1  0  0  0  0
  9 27  1  0  0  0  0
 10 13  1  0  0  0  0
 10 34  1  0  0  0  0
 10 35  1  0  0  0  0
 11 12  1  0  0  0  0
 11 32  1  0  0  0  0
 11 33  1  0  0  0  0
 12 38  1  0  0  0  0
 12 39  1  0  0  0  0
 13 36  1  0  0  0  0
 13 37  1  0  0  0  0
 14 16  1  0  0  0  0
 14 40  1  0  0  0  0
 14 41  1  0  0  0  0
 15 17  2  0  0  0  0
 16 21  2  0  0  0  0
 16 22  1  0  0  0  0
 17 20  1  0  0  0  0
 17 42  1  0  0  0  0
 18 19  2  0  0  0  0
 18 24  1  0  0  0  0
 19 20  1  0  0  0  0
 19 23  1  0  0  0  0
 21 25  1  0  0  0  0
 21 43  1  0  0  0  0
 22 26  2  0  0  0  0
 22 44  1  0  0  0  0
 23 29  2  0  0  0  0
 24 28  2  0  0  0  0
 24 45  1  0  0  0  0
 25 27  2  0  0  0  0
 25 46  1  0  0  0  0
 26 27  1  0  0  0  0
 26 47  1  0  0  0  0
 28 29  1  0  0  0  0
 29 48  1  0  0  0  0
 30 49  1  0  0  0  0
 30 50  1  0  0  0  0
 30 51  1  0  0  0  0
 31 52  1  0  0  0  0
 31 53  1  0  0  0  0
 31 54  1  0  0  0  0
M  CHG  2   5  -1   9   1
M  END
> <PUBCHEM_COMPOUND_CID>
127042802

> <PUBCHEM_CONFORMER_RMSD>
1

> <PUBCHEM_CONFORMER_DIVERSEORDER>
2
21
19
16
1
20
8
13
17
23
10
5
24
12
9
14
18
7
4
22
6
11
3
15

> <PUBCHEM_MMFF94_PARTIAL_CHARGES>
38
1 -0.16
10 0.27
11 0.27
12 0.37
13 0.37
14 0.41
15 0.18
16 -0.14
17 -0.14
18 0.08
19 0.09
2 -0.57
20 0.47
21 -0.15
22 -0.15
23 0.08
24 -0.15
25 -0.15
26 -0.15
27 0.13
28 0.08
29 -0.15
3 -0.36
30 0.28
31 0.28
4 -0.36
42 0.15
43 0.15
44 0.15
45 0.15
46 0.15
47 0.15
48 0.15
5 -0.52
6 -0.52
7 -0.81
8 -0.84
9 0.91

> <PUBCHEM_EFFECTIVE_ROTOR_COUNT>
7.2

> <PUBCHEM_PHARMACOPHORE_FEATURES>
13
1 1 acceptor
1 2 acceptor
1 3 acceptor
1 4 acceptor
1 5 acceptor
1 5 anion
1 6 acceptor
1 7 cation
1 8 cation
6 1 15 17 18 19 20 rings
6 16 21 22 25 26 27 rings
6 18 19 23 24 28 29 rings
6 7 8 10 11 12 13 rings

> <PUBCHEM_HEAVY_ATOM_COUNT>
31

> <PUBCHEM_ATOM_DEF_STEREO_COUNT>
0

> <PUBCHEM_ATOM_UDEF_STEREO_COUNT>
0

> <PUBCHEM_BOND_DEF_STEREO_COUNT>
0

> <PUBCHEM_BOND_UDEF_STEREO_COUNT>
0

> <PUBCHEM_ISOTOPIC_ATOM_COUNT>
0

> <PUBCHEM_COMPONENT_COUNT>
1

> <PUBCHEM_CACTVS_TAUTO_COUNT>
1

> <PUBCHEM_CONFORMER_ID>
079284F200000002

> <PUBCHEM_MMFF94_ENERGY>
113.3897

> <PUBCHEM_FEATURE_SELFOVERLAP>
66.096

> <PUBCHEM_SHAPE_FINGERPRINT>
10 15 17603865632995608712
10299344 5 18131632283932752563
10391435 84 17967534623152763051
10595046 47 18340486673212393248
10674148 151 14692573225926401518
11007060 377 18041003912721562817
11315181 36 18411136932139604001
11476731 47 18114468975479021893
12082328 90 18409726241214322333
12166972 35 18335985289830566412
12236239 1 18130505241195714440
12730499 353 18187646873708477122
13533116 47 18272650117857385952
13782708 43 17678454164866059314
13835254 42 18339923706707512616
13914758 101 9079122163527258319
14251764 18 17989486334135704199
14294032 229 15696900076256540715
14347424 109 8358255935130427158
14856354 85 17060616729369102477
150020 25 18040433274634106967
15064986 266 18337963302626930081
15142383 8 10303809887079583266
15183329 4 17561078107709035965
15348495 7 12247095564173830613
15352257 5 18411417319925248811
15444296 7 18114184193714304575
15461852 350 14129065820579260145
1577012 14 18130512950414403120
17134984 74 18114460080938946066
18335252 98 18335140912181289849
18365409 1 18264773340762605822
18608769 82 18334294318387775019
20105231 36 14764351556901272261
20157964 124 18408322182039876148
21049683 271 18412824720056970785
21150785 3 18343864441704833449
21267235 1 18271526403271212850
21403212 168 7925639894536372048
22149856 69 18059859415829469785
23389318 12 18410847798734817751
23424782 7 18186523206994483787
23516275 137 17631193942875463455
23522609 53 17845674593346396168
23569917 315 18268994185898489938
24771750 20 17826243074693925085
335352 9 18409173191724546446
335507 130 18342453742368666430
34797466 226 18272937107397856276
3552219 110 17846787303777821065
4073 2 18186524327533075355
4093350 32 14836113404176496632
4149490 64 18333729114072837562
4258327 124 17386585672768912116
4325135 7 18335419088792091205
44880568 143 17313101913481854749
46194498 28 18269556040649847902
54039377 194 17988082180404407110
5470011 282 18408599249747197421
6394761 36 10952055558748031945
9831232 110 17701829782468080366
999808 66 18409452497358040403

> <PUBCHEM_SHAPE_MULTIPOLES>
587.81
27.91
2.56
1.04
29.74
0.77
-0.14
3.09
-3.98
-5.76
-0.23
1.44
0.07
0.02

> <PUBCHEM_SHAPE_SELFOVERLAP>
1275.532

> <PUBCHEM_SHAPE_VOLUME>
323.1

> <PUBCHEM_COORDINATE_TYPE>
2
5
10

$$$$