56945422
  -OEChem-03242010103D

 46 48  0     0  0  0  0  0  0999 V2000
   -6.7442   -2.0361    0.4725 O   0  0  0  0  0  0  0  0  0  0  0  0
   -1.8214   -1.9645   -0.6336 O   0  0  0  0  0  0  0  0  0  0  0  0
    7.0481   -2.5558    0.4919 O   0  0  0  0  0  0  0  0  0  0  0  0
   -5.6676    2.5090   -0.5867 O   0  0  0  0  0  0  0  0  0  0  0  0
    8.5736   -0.3119   -0.1096 O   0  0  0  0  0  0  0  0  0  0  0  0
   -7.5519    0.5771    0.0386 O   0  0  0  0  0  0  0  0  0  0  0  0
    0.1062    3.3597   -0.3316 O   0  5  0  0  0  0  0  0  0  0  0  0
    0.0780    2.7706    1.7829 O   0  0  0  0  0  0  0  0  0  0  0  0
   -1.1980    0.2334   -0.0805 N   0  0  0  0  0  0  0  0  0  0  0  0
    0.3524    2.5389    0.5826 N   0  3  0  0  0  0  0  0  0  0  0  0
    2.9843    0.0133   -0.0853 C   0  0  0  0  0  0  0  0  0  0  0  0
    0.1994    0.1790   -0.0769 C   0  0  0  0  0  0  0  0  0  0  0  0
    4.4285   -0.0736   -0.0898 C   0  0  0  0  0  0  0  0  0  0  0  0
    0.9657    1.2991    0.2453 C   0  0  0  0  0  0  0  0  0  0  0  0
    2.3581    1.2162    0.2413 C   0  0  0  0  0  0  0  0  0  0  0  0
    2.2181   -1.1068   -0.4077 C   0  0  0  0  0  0  0  0  0  0  0  0
    0.8256   -1.0239   -0.4034 C   0  0  0  0  0  0  0  0  0  0  0  0
   -3.5353   -0.4401   -0.2458 C   0  0  0  0  0  0  0  0  0  0  0  0
    5.0553   -1.2837    0.2078 C   0  0  0  0  0  0  0  0  0  0  0  0
   -2.0977   -0.8041   -0.3490 C   0  0  0  0  0  0  0  0  0  0  0  0
    5.1940    1.0524   -0.3928 C   0  0  0  0  0  0  0  0  0  0  0  0
   -4.4812   -1.4155    0.0693 C   0  0  0  0  0  0  0  0  0  0  0  0
   -3.9383    0.8772   -0.4655 C   0  0  0  0  0  0  0  0  0  0  0  0
    6.4477   -1.3679    0.2023 C   0  0  0  0  0  0  0  0  0  0  0  0
   -5.8302   -1.0737    0.1650 C   0  0  0  0  0  0  0  0  0  0  0  0
    6.5864    0.9682   -0.3980 C   0  0  0  0  0  0  0  0  0  0  0  0
    7.2132   -0.2419   -0.1006 C   0  0  0  0  0  0  0  0  0  0  0  0
   -5.2872    1.2190   -0.3697 C   0  0  0  0  0  0  0  0  0  0  0  0
   -6.2331    0.2435   -0.0544 C   0  0  0  0  0  0  0  0  0  0  0  0
   -6.2486   -3.3571    0.6813 C   0  0  0  0  0  0  0  0  0  0  0  0
    2.9270    2.0980    0.5275 H   0  0  0  0  0  0  0  0  0  0  0  0
    2.6621   -2.0543   -0.7009 H   0  0  0  0  0  0  0  0  0  0  0  0
    0.3129   -1.9335   -0.6789 H   0  0  0  0  0  0  0  0  0  0  0  0
   -1.5833    1.1289    0.2015 H   0  0  0  0  0  0  0  0  0  0  0  0
    4.4885   -2.1709    0.4785 H   0  0  0  0  0  0  0  0  0  0  0  0
    4.7508    2.0072   -0.6619 H   0  0  0  0  0  0  0  0  0  0  0  0
   -4.1165   -2.4228    0.2380 H   0  0  0  0  0  0  0  0  0  0  0  0
   -3.2326    1.6517   -0.7520 H   0  0  0  0  0  0  0  0  0  0  0  0
    7.1711    1.8511   -0.6426 H   0  0  0  0  0  0  0  0  0  0  0  0
    6.3642   -3.2231    0.6729 H   0  0  0  0  0  0  0  0  0  0  0  0
   -4.8810    3.0440   -0.7890 H   0  0  0  0  0  0  0  0  0  0  0  0
   -7.6415    1.5285   -0.1447 H   0  0  0  0  0  0  0  0  0  0  0  0
    8.9341    0.5617   -0.3397 H   0  0  0  0  0  0  0  0  0  0  0  0
   -7.1109   -3.9908    0.9139 H   0  0  0  0  0  0  0  0  0  0  0  0
   -5.5783   -3.4053    1.5463 H   0  0  0  0  0  0  0  0  0  0  0  0
   -5.7914   -3.7658   -0.2263 H   0  0  0  0  0  0  0  0  0  0  0  0
  1 25  1  0  0  0  0
  1 30  1  0  0  0  0
  2 20  2  0  0  0  0
  3 24  1  0  0  0  0
  3 40  1  0  0  0  0
  4 28  1  0  0  0  0
  4 41  1  0  0  0  0
  5 27  1  0  0  0  0
  5 43  1  0  0  0  0
  6 29  1  0  0  0  0
  6 42  1  0  0  0  0
  7 10  1  0  0  0  0
  8 10  2  0  0  0  0
  9 12  1  0  0  0  0
  9 20  1  0  0  0  0
  9 34  1  0  0  0  0
 10 14  1  0  0  0  0
 11 13  1  0  0  0  0
 11 15  2  0  0  0  0
 11 16  1  0  0  0  0
 12 14  2  0  0  0  0
 12 17  1  0  0  0  0
 13 19  2  0  0  0  0
 13 21  1  0  0  0  0
 14 15  1  0  0  0  0
 15 31  1  0  0  0  0
 16 17  2  0  0  0  0
 16 32  1  0  0  0  0
 17 33  1  0  0  0  0
 18 20  1  0  0  0  0
 18 22  1  0  0  0  0
 18 23  2  0  0  0  0
 19 24  1  0  0  0  0
 19 35  1  0  0  0  0
 21 26  2  0  0  0  0
 21 36  1  0  0  0  0
 22 25  2  0  0  0  0
 22 37  1  0  0  0  0
 23 28  1  0  0  0  0
 23 38  1  0  0  0  0
 24 27  2  0  0  0  0
 25 29  1  0  0  0  0
 26 27  1  0  0  0  0
 26 39  1  0  0  0  0
 28 29  2  0  0  0  0
 30 44  1  0  0  0  0
 30 45  1  0  0  0  0
 30 46  1  0  0  0  0
M  CHG  2   7  -1  10   1
M  END
> <PUBCHEM_COMPOUND_CID>
56945422

> <PUBCHEM_CONFORMER_RMSD>
0.8

> <PUBCHEM_CONFORMER_DIVERSEORDER>
5
45
30
20
27
18
3
33
39
38
41
24
14
10
31
4
40
17
28
26
35
34
16
8
23
9
43
15
11
25
37
32
13
19
36
44
1
29
22
12
21
7
6
42
2

> <PUBCHEM_MMFF94_PARTIAL_CHARGES>
41
1 -0.36
10 0.91
12 0.12
14 0.13
15 -0.15
16 -0.15
17 -0.15
18 0.09
19 -0.15
2 -0.57
20 0.54
21 -0.15
22 -0.15
23 -0.15
24 0.08
25 0.08
26 -0.15
27 0.08
28 0.08
29 0.08
3 -0.53
30 0.28
31 0.15
32 0.15
33 0.15
34 0.37
35 0.15
36 0.15
37 0.15
38 0.15
39 0.15
4 -0.53
40 0.45
41 0.45
42 0.45
43 0.45
5 -0.53
6 -0.53
7 -0.52
8 -0.52
9 -0.55

> <PUBCHEM_EFFECTIVE_ROTOR_COUNT>
6

> <PUBCHEM_PHARMACOPHORE_FEATURES>
13
1 1 acceptor
1 2 acceptor
1 3 donor
1 4 donor
1 5 donor
1 6 donor
1 7 acceptor
1 7 anion
1 8 acceptor
1 9 donor
6 11 12 14 15 16 17 rings
6 13 19 21 24 26 27 rings
6 18 22 23 25 28 29 rings

> <PUBCHEM_HEAVY_ATOM_COUNT>
30

> <PUBCHEM_ATOM_DEF_STEREO_COUNT>
0

> <PUBCHEM_ATOM_UDEF_STEREO_COUNT>
0

> <PUBCHEM_BOND_DEF_STEREO_COUNT>
0

> <PUBCHEM_BOND_UDEF_STEREO_COUNT>
0

> <PUBCHEM_ISOTOPIC_ATOM_COUNT>
0

> <PUBCHEM_COMPONENT_COUNT>
1

> <PUBCHEM_CACTVS_TAUTO_COUNT>
612

> <PUBCHEM_CONFORMER_ID>
0364EB0E00000005

> <PUBCHEM_MMFF94_ENERGY>
114.7672

> <PUBCHEM_FEATURE_SELFOVERLAP>
66.064

> <PUBCHEM_SHAPE_FINGERPRINT>
10050765 1 18054504983059539174
100830 39 18336546032465897853
102385 1 16339509518092405196
10299344 5 18186521007913407318
10319926 262 18338505426784846555
11315181 36 18113618998004520711
11456790 92 17988658428082713315
11524674 6 17275384330747691279
11646440 116 17632301198006468179
11719270 70 18201436948528654862
11963148 33 18411131438017479510
12166972 35 18260833734343306796
12236239 1 18260548914024467502
12516196 113 18273495693300689576
12597179 24 14201401560483042304
12645989 146 18270677701419025751
13685833 64 18411702110073191538
13782708 43 18261672674979990139
13885169 127 18334012778759668831
14251764 18 18411699902238468558
14933364 13 18335421266171555750
15183329 4 18259980453169037099
15849732 13 18131632300416342061
15890870 6 18121495762332438373
16087824 20 18268430136512451689
18006028 8 18131630080266740432
18608769 82 18337112358500984083
19841028 212 18187922808747686322
21130935 74 18409448081377611098
21236236 1 18200876162763912352
21267235 1 18413112775297118126
21315763 28 18334858341787582086
21792934 111 18272076185482886488
21792961 116 18337666425939375860
23522609 53 18193870169235117005
23559900 14 18336822109074717361
3004659 81 18259983765295736362
3178227 256 18339935908455730787
335352 9 18342173375836494085
350125 39 18339082692006728741
4073 2 17895199942977788650
4098825 35 18113616776905314916
6009941 240 17894633638754719963
6691757 9 15769775797356644191
999808 66 18041569130497220875

> <PUBCHEM_SHAPE_MULTIPOLES>
560.47
22.99
2.87
0.78
7.49
0.41
0.14
-9.22
0.28
-2.64
0.59
-0.1
0.2
0.58

> <PUBCHEM_SHAPE_SELFOVERLAP>
1234.003

> <PUBCHEM_SHAPE_VOLUME>
301.4

> <PUBCHEM_COORDINATE_TYPE>
2
5
10

$$$$