127028059
  -OEChem-03242010103D

 53 57  0     0  0  0  0  0  0999 V2000
    2.3884    0.7707    0.2388 O   0  0  0  0  0  0  0  0  0  0  0  0
    3.7315   -3.0613   -0.0325 O   0  0  0  0  0  0  0  0  0  0  0  0
    6.1921   -2.1598   -0.4232 O   0  0  0  0  0  0  0  0  0  0  0  0
    6.7316    2.5587   -0.4520 O   0  0  0  0  0  0  0  0  0  0  0  0
   -8.6685   -1.1952   -0.9465 O   0  0  0  0  0  0  0  0  0  0  0  0
   -2.4434    1.0182    0.3695 N   0  0  0  0  0  0  0  0  0  0  0  0
    0.2197    0.0259    0.5860 N   0  0  0  0  0  0  0  0  0  0  0  0
   -7.6717   -0.6742   -1.7535 N   0  0  0  0  0  0  0  0  0  0  0  0
   -8.4063   -0.9867    0.3967 N   0  0  0  0  0  0  0  0  0  0  0  0
   -1.3144    1.9400    0.5603 C   0  0  0  0  0  0  0  0  0  0  0  0
   -2.0174   -0.1581   -0.4030 C   0  0  0  0  0  0  0  0  0  0  0  0
   -0.1623    1.2484    1.2919 C   0  0  0  0  0  0  0  0  0  0  0  0
   -0.8809   -0.8958    0.3076 C   0  0  0  0  0  0  0  0  0  0  0  0
   -3.5535    1.6967   -0.2983 C   0  0  0  0  0  0  0  0  0  0  0  0
    1.5238   -0.3105    0.3670 C   0  0  0  0  0  0  0  0  0  0  0  0
   -4.8591    0.9774   -0.0865 C   0  0  0  0  0  0  0  0  0  0  0  0
    1.9336   -1.5872    0.2827 C   0  0  0  0  0  0  0  0  0  0  0  0
   -5.5666    0.5292   -1.2167 C   0  0  0  0  0  0  0  0  0  0  0  0
    3.7213    0.5350    0.0169 C   0  0  0  0  0  0  0  0  0  0  0  0
   -5.3138    0.7840    1.2444 C   0  0  0  0  0  0  0  0  0  0  0  0
    4.2565   -0.7468   -0.0874 C   0  0  0  0  0  0  0  0  0  0  0  0
    3.3558   -1.9000    0.0448 C   0  0  0  0  0  0  0  0  0  0  0  0
   -6.7728   -0.1327   -0.9220 C   0  0  0  0  0  0  0  0  0  0  0  0
   -6.5158    0.1256    1.5614 C   0  0  0  0  0  0  0  0  0  0  0  0
    5.6230   -0.9272   -0.3140 C   0  0  0  0  0  0  0  0  0  0  0  0
    4.5528    1.6486   -0.1054 C   0  0  0  0  0  0  0  0  0  0  0  0
   -7.2398   -0.3312    0.4447 C   0  0  0  0  0  0  0  0  0  0  0  0
    5.9184    1.4737   -0.3320 C   0  0  0  0  0  0  0  0  0  0  0  0
    6.4522    0.1885   -0.4357 C   0  0  0  0  0  0  0  0  0  0  0  0
    6.6686   -2.7624    0.7788 C   0  0  0  0  0  0  0  0  0  0  0  0
    8.1173    2.3087   -0.6826 C   0  0  0  0  0  0  0  0  0  0  0  0
   -0.9607    2.3234   -0.4063 H   0  0  0  0  0  0  0  0  0  0  0  0
   -2.8475   -0.8636   -0.5252 H   0  0  0  0  0  0  0  0  0  0  0  0
   -1.6877    0.1375   -1.4084 H   0  0  0  0  0  0  0  0  0  0  0  0
   -1.6304    2.8015    1.1609 H   0  0  0  0  0  0  0  0  0  0  0  0
    0.6675    1.9580    1.3869 H   0  0  0  0  0  0  0  0  0  0  0  0
   -0.4685    0.9876    2.3133 H   0  0  0  0  0  0  0  0  0  0  0  0
   -1.2368   -1.3340    1.2485 H   0  0  0  0  0  0  0  0  0  0  0  0
   -0.5864   -1.7220   -0.3491 H   0  0  0  0  0  0  0  0  0  0  0  0
   -3.3449    1.8503   -1.3657 H   0  0  0  0  0  0  0  0  0  0  0  0
   -3.6931    2.7029    0.1216 H   0  0  0  0  0  0  0  0  0  0  0  0
    1.2775   -2.4406    0.4073 H   0  0  0  0  0  0  0  0  0  0  0  0
   -5.2158    0.6774   -2.2305 H   0  0  0  0  0  0  0  0  0  0  0  0
   -4.7161    1.1651    2.0723 H   0  0  0  0  0  0  0  0  0  0  0  0
   -6.8474   -0.0112    2.5828 H   0  0  0  0  0  0  0  0  0  0  0  0
    4.1397    2.6509   -0.0248 H   0  0  0  0  0  0  0  0  0  0  0  0
    7.5052   -0.0064   -0.6126 H   0  0  0  0  0  0  0  0  0  0  0  0
    6.9047   -3.8089    0.5673 H   0  0  0  0  0  0  0  0  0  0  0  0
    5.9151   -2.7259    1.5722 H   0  0  0  0  0  0  0  0  0  0  0  0
    7.5812   -2.2583    1.1117 H   0  0  0  0  0  0  0  0  0  0  0  0
    8.6138    3.2822   -0.7515 H   0  0  0  0  0  0  0  0  0  0  0  0
    8.2810    1.7990   -1.6382 H   0  0  0  0  0  0  0  0  0  0  0  0
    8.5757    1.7756    0.1573 H   0  0  0  0  0  0  0  0  0  0  0  0
  1 15  1  0  0  0  0
  1 19  1  0  0  0  0
  2 22  2  0  0  0  0
  3 25  1  0  0  0  0
  3 30  1  0  0  0  0
  4 28  1  0  0  0  0
  4 31  1  0  0  0  0
  5  8  1  0  0  0  0
  5  9  1  0  0  0  0
  6 10  1  0  0  0  0
  6 11  1  0  0  0  0
  6 14  1  0  0  0  0
  7 12  1  0  0  0  0
  7 13  1  0  0  0  0
  7 15  1  0  0  0  0
  8 23  2  0  0  0  0
  9 27  2  0  0  0  0
 10 12  1  0  0  0  0
 10 32  1  0  0  0  0
 10 35  1  0  0  0  0
 11 13  1  0  0  0  0
 11 33  1  0  0  0  0
 11 34  1  0  0  0  0
 12 36  1  0  0  0  0
 12 37  1  0  0  0  0
 13 38  1  0  0  0  0
 13 39  1  0  0  0  0
 14 16  1  0  0  0  0
 14 40  1  0  0  0  0
 14 41  1  0  0  0  0
 15 17  2  0  0  0  0
 16 18  2  0  0  0  0
 16 20  1  0  0  0  0
 17 22  1  0  0  0  0
 17 42  1  0  0  0  0
 18 23  1  0  0  0  0
 18 43  1  0  0  0  0
 19 21  2  0  0  0  0
 19 26  1  0  0  0  0
 20 24  2  0  0  0  0
 20 44  1  0  0  0  0
 21 22  1  0  0  0  0
 21 25  1  0  0  0  0
 23 27  1  0  0  0  0
 24 27  1  0  0  0  0
 24 45  1  0  0  0  0
 25 29  2  0  0  0  0
 26 28  2  0  0  0  0
 26 46  1  0  0  0  0
 28 29  1  0  0  0  0
 29 47  1  0  0  0  0
 30 48  1  0  0  0  0
 30 49  1  0  0  0  0
 30 50  1  0  0  0  0
 31 51  1  0  0  0  0
 31 52  1  0  0  0  0
 31 53  1  0  0  0  0
M  END
> <PUBCHEM_COMPOUND_CID>
127028059

> <PUBCHEM_CONFORMER_RMSD>
0.8

> <PUBCHEM_CONFORMER_DIVERSEORDER>
3
103
55
140
29
71
111
129
7
95
58
108
40
116
118
127
53
27
12
131
43
126
121
48
139
36
135
124
84
130
42
104
4
88
106
67
70
74
90
80
100
98
45
92
91
44
115
30
47
123
65
13
19
25
119
56
64
39
15
34
50
78
109
86
77
82
8
99
37
75
66
51
69
24
96
60
128
68
83
61
38
33
52
9
136
132
57
14
46
101
81
21
28
107
35
18
114
62
10
41
112
79
54
16
138
137
32
85
49
22
20
5
87
133
17
2
110
72
6
120
105
94
122
134
113
102
23
59
1
125
63
117
97
93
11
31
89
73
76
26

> <PUBCHEM_MMFF94_PARTIAL_CHARGES>
37
1 -0.16
10 0.27
11 0.27
12 0.37
13 0.37
14 0.41
15 0.18
16 -0.14
17 -0.14
18 -0.15
19 0.08
2 -0.57
20 -0.15
21 0.09
22 0.47
23 0.29
24 -0.15
25 0.08
26 -0.15
27 0.29
28 0.08
29 -0.15
3 -0.36
30 0.28
31 0.28
4 -0.36
42 0.15
43 0.15
44 0.15
45 0.15
46 0.15
47 0.15
5 0.24
6 -0.81
7 -0.84
8 -0.41
9 -0.41

> <PUBCHEM_EFFECTIVE_ROTOR_COUNT>
6.2

> <PUBCHEM_PHARMACOPHORE_FEATURES>
13
1 1 acceptor
1 2 acceptor
1 3 acceptor
1 4 acceptor
1 6 cation
1 7 cation
1 8 acceptor
1 9 acceptor
5 5 8 9 23 27 rings
6 1 15 17 19 21 22 rings
6 16 18 20 23 24 27 rings
6 19 21 25 26 28 29 rings
6 6 7 10 11 12 13 rings

> <PUBCHEM_HEAVY_ATOM_COUNT>
31

> <PUBCHEM_ATOM_DEF_STEREO_COUNT>
0

> <PUBCHEM_ATOM_UDEF_STEREO_COUNT>
0

> <PUBCHEM_BOND_DEF_STEREO_COUNT>
0

> <PUBCHEM_BOND_UDEF_STEREO_COUNT>
0

> <PUBCHEM_ISOTOPIC_ATOM_COUNT>
0

> <PUBCHEM_COMPONENT_COUNT>
1

> <PUBCHEM_CACTVS_TAUTO_COUNT>
1

> <PUBCHEM_CONFORMER_ID>
07924B5B00000003

> <PUBCHEM_MMFF94_ENERGY>
110.9046

> <PUBCHEM_FEATURE_SELFOVERLAP>
66.19

> <PUBCHEM_SHAPE_FINGERPRINT>
10 15 17676488384600141584
10299344 5 17988926669774261511
10391435 84 18040999592016215443
10533779 47 10087651441593508397
10595046 47 18341614776268595192
10917259 128 14418952030887761253
11007060 377 18113624465339730985
11386260 185 16443361849349492782
11524674 6 14979952593380069533
12144603 126 18130797737823482721
12166972 35 18335144167772463524
12236239 1 18201721712932920512
12730499 353 18261397724243049674
13533116 47 18343302540245568024
13782708 43 17896038732852773202
13835254 42 18338798910533412236
13914758 101 11097848588962176701
14251764 18 17918274264407673775
14294032 229 15696620796029191379
14856354 85 16917066690317324725
150020 25 17894347770305975311
15142383 8 9367342635373777934
15183329 4 17917992784824798573
15352257 5 18343581846179664279
15461852 350 13912332287514263577
15716309 27 18272371958626900913
1577012 14 18272940392494579865
18335252 98 18335425694404150811
18365409 1 18267589194325673678
20105231 36 14261356873067933005
20157964 124 18408325489133045556
20554085 129 15647048283082689608
21049683 271 18343021129245838145
21150785 3 18202002153070263653
21267235 1 18272092643628544834
21315759 40 18131635582346427161
21315763 28 18337671915034258282
21403212 168 11025787713047677289
22149856 69 17131841906282434699
23081809 10 18131072601880069521
23389318 12 18341045298644872599
23424782 7 18187368748679474795
23516275 137 17488207953294048663
23522609 53 17845116041671601081
23569917 315 18199753540603529614
24771750 20 17608949903105796436
27425 322 16588879005002564912
335352 9 18409738344943430246
34797466 226 18131641067167403052
4073 2 18187089485078639770
4093350 32 14333117607877744096
4258327 124 17605011367066634508
4325135 7 18410575106644551717
445580 167 18411418427557130973
44880568 143 17313384492244022533
45377200 153 16629966654435774151
5470011 282 18408037408053587541
6394761 36 9799698099179391481
9962374 69 18339636751499842154
999808 66 18409454705002963659

> <PUBCHEM_SHAPE_MULTIPOLES>
588.69
27.22
2.51
1.09
22.75
0.59
0
1.72
-5.64
-6.15
0.01
1.95
-0.04
-1.5

> <PUBCHEM_SHAPE_SELFOVERLAP>
1290.918

> <PUBCHEM_SHAPE_VOLUME>
321.4

> <PUBCHEM_COORDINATE_TYPE>
2
5
10

$$$$