71492759
  -OEChem-03242010103D

 85 89  0     1  0  0  0  0  0999 V2000
   -2.8306   -1.2769    4.8059 F   0  0  0  0  0  0  0  0  0  0  0  0
    2.1061    1.0726   -1.4511 O   0  0  0  0  0  0  0  0  0  0  0  0
    2.0831    0.2847    1.3191 O   0  0  0  0  0  0  0  0  0  0  0  0
    3.3527    4.9077    1.2338 O   0  0  0  0  0  0  0  0  0  0  0  0
    0.4378    5.3783   -2.4972 O   0  0  0  0  0  0  0  0  0  0  0  0
    0.2510   -3.5516   -1.5252 O   0  0  0  0  0  0  0  0  0  0  0  0
    4.9994   -4.1378   -1.7432 O   0  0  0  0  0  0  0  0  0  0  0  0
    2.4458   -5.2010   -1.8899 O   0  0  0  0  0  0  0  0  0  0  0  0
    3.2447   -0.1908    3.2488 O   0  0  0  0  0  0  0  0  0  0  0  0
   -1.8222    0.2108    0.0705 O   0  0  0  0  0  0  0  0  0  0  0  0
   -5.7736   -0.4477   -2.9993 O   0  0  0  0  0  0  0  0  0  0  0  0
   -7.9634   -0.0051   -1.3455 O   0  0  0  0  0  0  0  0  0  0  0  0
   -2.6720   -0.4492    2.1612 N   0  0  0  0  0  0  0  0  0  0  0  0
    3.3033    0.6115    0.6525 C   0  0  1  0  0  0  0  0  0  0  0  0
    3.1755    0.3254   -0.8494 C   0  0  1  0  0  0  0  0  0  0  0  0
    3.6089    2.0931    0.8629 C   0  0  0  0  0  0  0  0  0  0  0  0
    2.7680    2.9532   -0.0414 C   0  0  0  0  0  0  0  0  0  0  0  0
    2.9805   -1.1535   -1.1277 C   0  0  0  0  0  0  0  0  0  0  0  0
    2.0826    2.4060   -1.1335 C   0  0  0  0  0  0  0  0  0  0  0  0
    2.6807    4.3317    0.1961 C   0  0  0  0  0  0  0  0  0  0  0  0
    1.2910    3.2187   -1.9491 C   0  0  0  0  0  0  0  0  0  0  0  0
    4.0883   -1.9811   -1.3099 C   0  0  0  0  0  0  0  0  0  0  0  0
    1.6931   -1.6855   -1.2010 C   0  0  0  0  0  0  0  0  0  0  0  0
    1.9009    5.1440   -0.6279 C   0  0  0  0  0  0  0  0  0  0  0  0
    1.2032    4.5870   -1.6972 C   0  0  0  0  0  0  0  0  0  0  0  0
    1.5136   -3.0449   -1.4565 C   0  0  0  0  0  0  0  0  0  0  0  0
    3.9089   -3.3406   -1.5653 C   0  0  0  0  0  0  0  0  0  0  0  0
    2.2041   -0.1010    2.6160 C   0  0  0  0  0  0  0  0  0  0  0  0
    2.6214   -3.8725   -1.6388 C   0  0  0  0  0  0  0  0  0  0  0  0
    0.8713   -0.4116    3.1918 C   0  0  0  0  0  0  0  0  0  0  0  0
    4.6734    5.3744    0.9687 C   0  0  0  0  0  0  0  0  0  0  0  0
   -0.2748   -0.2850    2.4067 C   0  0  0  0  0  0  0  0  0  0  0  0
    0.7653   -0.8296    4.5184 C   0  0  0  0  0  0  0  0  0  0  0  0
   -0.2474    4.7424   -3.5752 C   0  0  0  0  0  0  0  0  0  0  0  0
   -1.5266   -0.5765    2.9482 C   0  0  0  0  0  0  0  0  0  0  0  0
   -0.8257   -2.6373   -1.3271 C   0  0  0  0  0  0  0  0  0  0  0  0
    6.2791   -3.5147   -1.6520 C   0  0  0  0  0  0  0  0  0  0  0  0
   -0.4866   -1.1211    5.0598 C   0  0  0  0  0  0  0  0  0  0  0  0
    2.3900   -6.0705   -0.7612 C   0  0  0  0  0  0  0  0  0  0  0  0
   -1.6326   -0.9946    4.2747 C   0  0  0  0  0  0  0  0  0  0  0  0
   -2.7550   -0.0758    0.8133 C   0  0  0  0  0  0  0  0  0  0  0  0
   -4.1266   -0.0579    0.2406 C   0  0  0  0  0  0  0  0  0  0  0  0
   -4.3151   -0.2631   -1.1262 C   0  0  0  0  0  0  0  0  0  0  0  0
   -5.2256    0.1642    1.0705 C   0  0  0  0  0  0  0  0  0  0  0  0
   -5.6024   -0.2465   -1.6630 C   0  0  0  0  0  0  0  0  0  0  0  0
   -6.5128    0.1811    0.5338 C   0  0  0  0  0  0  0  0  0  0  0  0
   -6.7013   -0.0244   -0.8330 C   0  0  0  0  0  0  0  0  0  0  0  0
   -4.5983   -0.6676   -3.7772 C   0  0  0  0  0  0  0  0  0  0  0  0
   -9.0312    0.2284   -0.4291 C   0  0  0  0  0  0  0  0  0  0  0  0
    4.1278    0.0105    1.0588 H   0  0  0  0  0  0  0  0  0  0  0  0
    4.0977    0.6363   -1.3624 H   0  0  0  0  0  0  0  0  0  0  0  0
    4.6632    2.2763    0.6245 H   0  0  0  0  0  0  0  0  0  0  0  0
    3.4337    2.3687    1.9091 H   0  0  0  0  0  0  0  0  0  0  0  0
    0.7725    2.7286   -2.7670 H   0  0  0  0  0  0  0  0  0  0  0  0
    5.0638   -1.5119   -1.2385 H   0  0  0  0  0  0  0  0  0  0  0  0
    0.8640   -1.0067   -1.0371 H   0  0  0  0  0  0  0  0  0  0  0  0
    1.8346    6.2119   -0.4347 H   0  0  0  0  0  0  0  0  0  0  0  0
    5.1113    5.7152    1.9109 H   0  0  0  0  0  0  0  0  0  0  0  0
    4.6431    6.2187    0.2728 H   0  0  0  0  0  0  0  0  0  0  0  0
    5.3021    4.5778    0.5599 H   0  0  0  0  0  0  0  0  0  0  0  0
   -0.1601    0.0475    1.3877 H   0  0  0  0  0  0  0  0  0  0  0  0
    1.6458   -0.9343    5.1466 H   0  0  0  0  0  0  0  0  0  0  0  0
   -0.8066    5.5201   -4.1058 H   0  0  0  0  0  0  0  0  0  0  0  0
   -0.9802    4.0136   -3.2125 H   0  0  0  0  0  0  0  0  0  0  0  0
    0.4527    4.3052   -4.2952 H   0  0  0  0  0  0  0  0  0  0  0  0
   -0.8432   -1.8533   -2.0917 H   0  0  0  0  0  0  0  0  0  0  0  0
   -1.7556   -3.2053   -1.4360 H   0  0  0  0  0  0  0  0  0  0  0  0
   -0.8179   -2.2368   -0.3089 H   0  0  0  0  0  0  0  0  0  0  0  0
    7.0293   -4.2948   -1.8185 H   0  0  0  0  0  0  0  0  0  0  0  0
    6.4604   -3.1093   -0.6506 H   0  0  0  0  0  0  0  0  0  0  0  0
    6.4208   -2.7656   -2.4385 H   0  0  0  0  0  0  0  0  0  0  0  0
   -0.5697   -1.4464    6.0926 H   0  0  0  0  0  0  0  0  0  0  0  0
    1.5480   -5.8074   -0.1131 H   0  0  0  0  0  0  0  0  0  0  0  0
    3.3262   -6.0284   -0.1956 H   0  0  0  0  0  0  0  0  0  0  0  0
    2.2461   -7.0923   -1.1229 H   0  0  0  0  0  0  0  0  0  0  0  0
   -3.5271   -0.7150    2.6413 H   0  0  0  0  0  0  0  0  0  0  0  0
   -3.4297   -0.4389   -1.7274 H   0  0  0  0  0  0  0  0  0  0  0  0
   -5.1237    0.3664    2.1325 H   0  0  0  0  0  0  0  0  0  0  0  0
   -7.3180    0.3678    1.2360 H   0  0  0  0  0  0  0  0  0  0  0  0
   -4.9207   -0.8075   -4.8143 H   0  0  0  0  0  0  0  0  0  0  0  0
   -4.0825   -1.5869   -3.4793 H   0  0  0  0  0  0  0  0  0  0  0  0
   -3.9370    0.2056   -3.7662 H   0  0  0  0  0  0  0  0  0  0  0  0
   -9.9614    0.2080   -1.0065 H   0  0  0  0  0  0  0  0  0  0  0  0
   -8.9619    1.2220    0.0265 H   0  0  0  0  0  0  0  0  0  0  0  0
   -9.1037   -0.5692    0.3181 H   0  0  0  0  0  0  0  0  0  0  0  0
  1 40  1  0  0  0  0
  2 15  1  0  0  0  0
  2 19  1  0  0  0  0
  3 14  1  0  0  0  0
  3 28  1  0  0  0  0
  4 20  1  0  0  0  0
  4 31  1  0  0  0  0
  5 25  1  0  0  0  0
  5 34  1  0  0  0  0
  6 26  1  0  0  0  0
  6 36  1  0  0  0  0
  7 27  1  0  0  0  0
  7 37  1  0  0  0  0
  8 29  1  0  0  0  0
  8 39  1  0  0  0  0
  9 28  2  0  0  0  0
 10 41  2  0  0  0  0
 11 45  1  0  0  0  0
 11 48  1  0  0  0  0
 12 47  1  0  0  0  0
 12 49  1  0  0  0  0
 13 35  1  0  0  0  0
 13 41  1  0  0  0  0
 13 76  1  0  0  0  0
 14 15  1  0  0  0  0
 14 16  1  0  0  0  0
 14 50  1  0  0  0  0
 15 18  1  0  0  0  0
 15 51  1  0  0  0  0
 16 17  1  0  0  0  0
 16 52  1  0  0  0  0
 16 53  1  0  0  0  0
 17 19  2  0  0  0  0
 17 20  1  0  0  0  0
 18 22  2  0  0  0  0
 18 23  1  0  0  0  0
 19 21  1  0  0  0  0
 20 24  2  0  0  0  0
 21 25  2  0  0  0  0
 21 54  1  0  0  0  0
 22 27  1  0  0  0  0
 22 55  1  0  0  0  0
 23 26  2  0  0  0  0
 23 56  1  0  0  0  0
 24 25  1  0  0  0  0
 24 57  1  0  0  0  0
 26 29  1  0  0  0  0
 27 29  2  0  0  0  0
 28 30  1  0  0  0  0
 30 32  2  0  0  0  0
 30 33  1  0  0  0  0
 31 58  1  0  0  0  0
 31 59  1  0  0  0  0
 31 60  1  0  0  0  0
 32 35  1  0  0  0  0
 32 61  1  0  0  0  0
 33 38  2  0  0  0  0
 33 62  1  0  0  0  0
 34 63  1  0  0  0  0
 34 64  1  0  0  0  0
 34 65  1  0  0  0  0
 35 40  2  0  0  0  0
 36 66  1  0  0  0  0
 36 67  1  0  0  0  0
 36 68  1  0  0  0  0
 37 69  1  0  0  0  0
 37 70  1  0  0  0  0
 37 71  1  0  0  0  0
 38 40  1  0  0  0  0
 38 72  1  0  0  0  0
 39 73  1  0  0  0  0
 39 74  1  0  0  0  0
 39 75  1  0  0  0  0
 41 42  1  0  0  0  0
 42 43  2  0  0  0  0
 42 44  1  0  0  0  0
 43 45  1  0  0  0  0
 43 77  1  0  0  0  0
 44 46  2  0  0  0  0
 44 78  1  0  0  0  0
 45 47  2  0  0  0  0
 46 47  1  0  0  0  0
 46 79  1  0  0  0  0
 48 80  1  0  0  0  0
 48 81  1  0  0  0  0
 48 82  1  0  0  0  0
 49 83  1  0  0  0  0
 49 84  1  0  0  0  0
 49 85  1  0  0  0  0
M  END
> <PUBCHEM_COMPOUND_CID>
71492759

> <PUBCHEM_CONFORMER_RMSD>
1.4

> <PUBCHEM_CONFORMER_DIVERSEORDER>
2
19
7
12
9
17
6
10
21
14
22
25
1
24
8
18
28
11
23
13
15
27
20
5
16
4
26
3

> <PUBCHEM_MMFF94_PARTIAL_CHARGES>
60
1 -0.19
10 -0.57
11 -0.36
12 -0.36
13 -0.55
14 0.28
15 0.42
16 0.14
17 -0.14
18 -0.14
19 0.08
2 -0.36
20 0.08
21 -0.15
22 -0.15
23 -0.15
24 -0.15
25 0.08
26 0.08
27 0.08
28 0.63
29 0.08
3 -0.43
30 0.09
31 0.28
32 -0.15
33 -0.15
34 0.28
35 0.12
36 0.28
37 0.28
38 -0.15
39 0.28
4 -0.36
40 0.19
41 0.54
42 0.09
43 -0.15
44 -0.15
45 0.08
46 -0.15
47 0.08
48 0.28
49 0.28
5 -0.36
54 0.15
55 0.15
56 0.15
57 0.15
6 -0.36
61 0.15
62 0.15
7 -0.36
72 0.15
76 0.37
77 0.15
78 0.15
79 0.15
8 -0.36
9 -0.57

> <PUBCHEM_EFFECTIVE_ROTOR_COUNT>
14.8

> <PUBCHEM_PHARMACOPHORE_FEATURES>
16
1 10 acceptor
1 11 acceptor
1 12 acceptor
1 13 donor
1 2 acceptor
1 4 acceptor
1 5 acceptor
1 6 acceptor
1 7 acceptor
1 8 acceptor
1 9 acceptor
6 17 19 20 21 24 25 rings
6 18 22 23 26 27 29 rings
6 2 14 15 16 17 19 rings
6 30 32 33 35 38 40 rings
6 42 43 44 45 46 47 rings

> <PUBCHEM_HEAVY_ATOM_COUNT>
49

> <PUBCHEM_ATOM_DEF_STEREO_COUNT>
2

> <PUBCHEM_ATOM_UDEF_STEREO_COUNT>
0

> <PUBCHEM_BOND_DEF_STEREO_COUNT>
0

> <PUBCHEM_BOND_UDEF_STEREO_COUNT>
0

> <PUBCHEM_ISOTOPIC_ATOM_COUNT>
0

> <PUBCHEM_COMPONENT_COUNT>
1

> <PUBCHEM_CACTVS_TAUTO_COUNT>
2

> <PUBCHEM_CONFORMER_ID>
0442E49700000002

> <PUBCHEM_MMFF94_ENERGY>
216.0705

> <PUBCHEM_FEATURE_SELFOVERLAP>
81.255

> <PUBCHEM_SHAPE_FINGERPRINT>
12166972 35 17988646224957407455
12202916 173 18186797011133470472
131258 38 17273954914034075838
14040222 75 17610016201977825621
14068700 675 17488748848600310642
14114206 34 17534083885866098820
16993438 75 17472992700834447998
19315092 285 17489023751775677986
21716022 299 17703798002443732817
4066623 53 18041001675012024236
513532 50 18259982677898799336
59025328 239 18126583218969079506
5951187 136 18186515536109326225
6677587 24 18122875837332285117

> <PUBCHEM_SHAPE_MULTIPOLES>
931.58
14.07
7.93
5.15
34.71
4.91
-6.78
-2.82
7.89
-16.96
7.19
2.19
-1.66
3.92

> <PUBCHEM_SHAPE_SELFOVERLAP>
2026.64

> <PUBCHEM_SHAPE_VOLUME>
512.1

> <PUBCHEM_COORDINATE_TYPE>
2
5
10

$$$$