127042306
  -OEChem-03242010103D

 54 57  0     0  0  0  0  0  0999 V2000
    1.9641    0.4738    0.0181 O   0  0  0  0  0  0  0  0  0  0  0  0
    4.1358   -2.9674   -0.0375 O   0  0  0  0  0  0  0  0  0  0  0  0
    6.3700   -1.5440   -0.0855 O   0  0  0  0  0  0  0  0  0  0  0  0
    5.8648    3.1784   -0.0692 O   0  0  0  0  0  0  0  0  0  0  0  0
   -6.3814   -2.1544   -0.6019 O   0  5  0  0  0  0  0  0  0  0  0  0
   -5.0092   -2.0257    1.1068 O   0  0  0  0  0  0  0  0  0  0  0  0
   -2.7757   -0.3368   -0.5308 N   0  0  0  0  0  0  0  0  0  0  0  0
   -0.0162   -0.7322    0.0630 N   0  0  0  0  0  0  0  0  0  0  0  0
   -5.7459   -1.4864    0.2477 N   0  3  0  0  0  0  0  0  0  0  0  0
   -1.9126    0.8033   -0.1898 C   0  0  0  0  0  0  0  0  0  0  0  0
   -2.0007   -1.3734   -1.2283 C   0  0  0  0  0  0  0  0  0  0  0  0
   -0.8398   -1.8638   -0.3608 C   0  0  0  0  0  0  0  0  0  0  0  0
   -0.7497    0.3607    0.7005 C   0  0  0  0  0  0  0  0  0  0  0  0
   -3.9040    0.1005   -1.3519 C   0  0  0  0  0  0  0  0  0  0  0  0
    1.3473   -0.7720    0.0310 C   0  0  0  0  0  0  0  0  0  0  0  0
   -4.9967    0.7178   -0.5201 C   0  0  0  0  0  0  0  0  0  0  0  0
    2.0335   -1.9269    0.0133 C   0  0  0  0  0  0  0  0  0  0  0  0
   -5.8649   -0.0693    0.2364 C   0  0  0  0  0  0  0  0  0  0  0  0
    3.3339    0.5386   -0.0134 C   0  0  0  0  0  0  0  0  0  0  0  0
    4.1452   -0.5935   -0.0334 C   0  0  0  0  0  0  0  0  0  0  0  0
   -5.1316    2.1060   -0.5165 C   0  0  0  0  0  0  0  0  0  0  0  0
    3.5086   -1.9176   -0.0211 C   0  0  0  0  0  0  0  0  0  0  0  0
   -6.8680    0.5320    0.9966 C   0  0  0  0  0  0  0  0  0  0  0  0
    5.5360   -0.4674   -0.0651 C   0  0  0  0  0  0  0  0  0  0  0  0
    3.9109    1.8088   -0.0252 C   0  0  0  0  0  0  0  0  0  0  0  0
   -6.1349    2.7073    0.2436 C   0  0  0  0  0  0  0  0  0  0  0  0
   -7.0031    1.9203    1.0002 C   0  0  0  0  0  0  0  0  0  0  0  0
    5.2996    1.9401   -0.0572 C   0  0  0  0  0  0  0  0  0  0  0  0
    6.1103    0.8043   -0.0768 C   0  0  0  0  0  0  0  0  0  0  0  0
    6.7959   -2.0578    1.1752 C   0  0  0  0  0  0  0  0  0  0  0  0
    4.9788    4.2965   -0.0478 C   0  0  0  0  0  0  0  0  0  0  0  0
   -1.6141   -0.9890   -2.1819 H   0  0  0  0  0  0  0  0  0  0  0  0
   -2.6427   -2.2333   -1.4553 H   0  0  0  0  0  0  0  0  0  0  0  0
   -1.5159    1.2772   -1.0978 H   0  0  0  0  0  0  0  0  0  0  0  0
   -2.4736    1.5659    0.3612 H   0  0  0  0  0  0  0  0  0  0  0  0
   -0.1159    1.2308    0.9062 H   0  0  0  0  0  0  0  0  0  0  0  0
   -1.1296    0.0150    1.6706 H   0  0  0  0  0  0  0  0  0  0  0  0
   -1.2181   -2.3911    0.5240 H   0  0  0  0  0  0  0  0  0  0  0  0
   -0.2846   -2.5905   -0.9642 H   0  0  0  0  0  0  0  0  0  0  0  0
   -4.3435   -0.7455   -1.8979 H   0  0  0  0  0  0  0  0  0  0  0  0
   -3.5792    0.7894   -2.1445 H   0  0  0  0  0  0  0  0  0  0  0  0
    1.5689   -2.9052    0.0503 H   0  0  0  0  0  0  0  0  0  0  0  0
   -4.4633    2.7336   -1.1003 H   0  0  0  0  0  0  0  0  0  0  0  0
   -7.5522   -0.0684    1.5914 H   0  0  0  0  0  0  0  0  0  0  0  0
    3.2304    2.6538   -0.0086 H   0  0  0  0  0  0  0  0  0  0  0  0
   -6.2400    3.7883    0.2465 H   0  0  0  0  0  0  0  0  0  0  0  0
   -7.7842    2.3886    1.5920 H   0  0  0  0  0  0  0  0  0  0  0  0
    7.1919    0.9135   -0.1024 H   0  0  0  0  0  0  0  0  0  0  0  0
    7.2818   -3.0226    1.0057 H   0  0  0  0  0  0  0  0  0  0  0  0
    5.9505   -2.2051    1.8550 H   0  0  0  0  0  0  0  0  0  0  0  0
    7.5215   -1.3758    1.6293 H   0  0  0  0  0  0  0  0  0  0  0  0
    5.5980    5.1995   -0.0613 H   0  0  0  0  0  0  0  0  0  0  0  0
    4.3908    4.3267    0.8758 H   0  0  0  0  0  0  0  0  0  0  0  0
    4.3487    4.3282   -0.9432 H   0  0  0  0  0  0  0  0  0  0  0  0
  1 15  1  0  0  0  0
  1 19  1  0  0  0  0
  2 22  2  0  0  0  0
  3 24  1  0  0  0  0
  3 30  1  0  0  0  0
  4 28  1  0  0  0  0
  4 31  1  0  0  0  0
  5  9  1  0  0  0  0
  6  9  2  0  0  0  0
  7 10  1  0  0  0  0
  7 11  1  0  0  0  0
  7 14  1  0  0  0  0
  8 12  1  0  0  0  0
  8 13  1  0  0  0  0
  8 15  1  0  0  0  0
  9 18  1  0  0  0  0
 10 13  1  0  0  0  0
 10 34  1  0  0  0  0
 10 35  1  0  0  0  0
 11 12  1  0  0  0  0
 11 32  1  0  0  0  0
 11 33  1  0  0  0  0
 12 38  1  0  0  0  0
 12 39  1  0  0  0  0
 13 36  1  0  0  0  0
 13 37  1  0  0  0  0
 14 16  1  0  0  0  0
 14 40  1  0  0  0  0
 14 41  1  0  0  0  0
 15 17  2  0  0  0  0
 16 18  1  0  0  0  0
 16 21  2  0  0  0  0
 17 22  1  0  0  0  0
 17 42  1  0  0  0  0
 18 23  2  0  0  0  0
 19 20  2  0  0  0  0
 19 25  1  0  0  0  0
 20 22  1  0  0  0  0
 20 24  1  0  0  0  0
 21 26  1  0  0  0  0
 21 43  1  0  0  0  0
 23 27  1  0  0  0  0
 23 44  1  0  0  0  0
 24 29  2  0  0  0  0
 25 28  2  0  0  0  0
 25 45  1  0  0  0  0
 26 27  2  0  0  0  0
 26 46  1  0  0  0  0
 27 47  1  0  0  0  0
 28 29  1  0  0  0  0
 29 48  1  0  0  0  0
 30 49  1  0  0  0  0
 30 50  1  0  0  0  0
 30 51  1  0  0  0  0
 31 52  1  0  0  0  0
 31 53  1  0  0  0  0
 31 54  1  0  0  0  0
M  CHG  2   5  -1   9   1
M  END
> <PUBCHEM_COMPOUND_CID>
127042306

> <PUBCHEM_CONFORMER_RMSD>
1

> <PUBCHEM_CONFORMER_DIVERSEORDER>
1
32
38
42
29
43
31
8
6
35
24
15
41
30
27
36
23
12
34
7
37
26
44
19
22
5
13
40
39
16
3
20
33
10
21
17
11
45
14
25
18
28
9
2
4

> <PUBCHEM_MMFF94_PARTIAL_CHARGES>
38
1 -0.16
10 0.27
11 0.27
12 0.37
13 0.37
14 0.41
15 0.18
16 -0.14
17 -0.14
18 0.13
19 0.08
2 -0.57
20 0.09
21 -0.15
22 0.47
23 -0.15
24 0.08
25 -0.15
26 -0.15
27 -0.15
28 0.08
29 -0.15
3 -0.36
30 0.28
31 0.28
4 -0.36
42 0.15
43 0.15
44 0.15
45 0.15
46 0.15
47 0.15
48 0.15
5 -0.52
6 -0.52
7 -0.81
8 -0.84
9 0.91

> <PUBCHEM_EFFECTIVE_ROTOR_COUNT>
7.2

> <PUBCHEM_PHARMACOPHORE_FEATURES>
13
1 1 acceptor
1 2 acceptor
1 3 acceptor
1 4 acceptor
1 5 acceptor
1 5 anion
1 6 acceptor
1 7 cation
1 8 cation
6 1 15 17 19 20 22 rings
6 16 18 21 23 26 27 rings
6 19 20 24 25 28 29 rings
6 7 8 10 11 12 13 rings

> <PUBCHEM_HEAVY_ATOM_COUNT>
31

> <PUBCHEM_ATOM_DEF_STEREO_COUNT>
0

> <PUBCHEM_ATOM_UDEF_STEREO_COUNT>
0

> <PUBCHEM_BOND_DEF_STEREO_COUNT>
0

> <PUBCHEM_BOND_UDEF_STEREO_COUNT>
0

> <PUBCHEM_ISOTOPIC_ATOM_COUNT>
0

> <PUBCHEM_COMPONENT_COUNT>
1

> <PUBCHEM_CACTVS_TAUTO_COUNT>
1

> <PUBCHEM_CONFORMER_ID>
0792830200000001

> <PUBCHEM_MMFF94_ENERGY>
116.346

> <PUBCHEM_FEATURE_SELFOVERLAP>
66.096

> <PUBCHEM_SHAPE_FINGERPRINT>
10 15 18334583421838300545
10050765 1 18338234998411792746
10411042 1 17978229354167144110
10595046 47 18340764935806397431
10673678 19 18271812362673893420
10835480 77 18408881845552402117
11315181 36 10807924973926238571
11456790 92 18115581553293169216
1200032 147 17968943132251177200
12166972 35 18186523211084242812
12236239 1 18343019995078189063
12788726 201 17275111595854971153
13167372 99 18413388713707712200
13533116 47 17168698631800042010
13782708 43 17168416052795559906
13785724 45 17765435344619167006
14202776 33 17845366816838693319
14790565 3 18412826872035013031
14849402 71 18041572436962915852
14933364 13 18409732846267140865
15183329 4 18341043038885608165
15348495 7 18333734619645468939
15419008 145 18190170184264664128
1577012 14 18341893004381730052
15840311 113 18337677425899792909
16110190 28 18412545397343425013
17844677 252 18410860962429674013
19301679 30 17903908960988858002
21130935 74 18334576866784965738
21298829 104 18340766052799354044
22122407 14 18341342123307672281
23081809 10 18130780183463572349
23522609 53 17916885619650269153
23569914 2 17465892295108485133
255183 451 17770791117962115454
2838139 119 18410005507770669437
335507 130 18343864441742068951
350125 39 18339640049427407924
397830 11 18113911497845678505
4073 2 18186807997533317419
4093350 32 17632579353865015588
4098825 35 18409449180572240553
4144715 1 18260839219395871065
44555599 121 18272378524962783057
5104073 3 18187361038685762139
5364581 5 18335707186919712441
6328613 192 18343302557367577337
68570916 9 18411698824344225455

> <PUBCHEM_SHAPE_MULTIPOLES>
587.81
22.27
3.57
0.92
10.27
2.54
-0.01
5.98
-3.79
-4.03
-0.09
0.88
-0.15
-1.09

> <PUBCHEM_SHAPE_SELFOVERLAP>
1275.812

> <PUBCHEM_SHAPE_VOLUME>
323.1

> <PUBCHEM_COORDINATE_TYPE>
2
5
10

$$$$