39
 OpenBabel03292022263D

 92 97  0  0  0  0  0  0  0  0999 V2000
    2.1446   -4.7595    7.3033 C   0  0  0  0  0  0  0  0  0  0  0  0
    3.4269   -4.5441    6.7088 O   0  0  0  0  0  0  0  0  0  0  0  0
    3.8271   -3.2348    6.6844 C   0  0  0  0  0  0  0  0  0  0  0  0
    3.5507   -2.3839    7.7702 C   0  0  0  0  0  0  0  0  0  0  0  0
    3.8323   -1.0219    7.7065 C   0  0  0  0  0  0  0  0  0  0  0  0
    4.4367   -0.5046    6.5691 C   0  0  0  0  0  0  0  0  0  0  0  0
    4.7033    0.9111    6.4235 C   0  0  0  0  0  0  0  0  0  0  0  0
    4.0005    1.8239    5.7580 C   0  0  0  0  0  0  0  0  0  0  0  0
    2.6473    1.6828    5.2303 C   0  0  0  0  0  0  0  0  0  0  0  0
    2.3649    1.2472    3.9434 C   0  0  0  0  0  0  0  0  0  0  0  0
    1.0320    1.1537    3.5365 C   0  0  0  0  0  0  0  0  0  0  0  0
   -0.0292    1.4924    4.3971 C   0  0  0  0  0  0  0  0  0  0  0  0
   -1.2512    1.3332    3.7961 O   0  0  0  0  0  0  0  0  0  0  0  0
   -2.4205    1.6833    4.5209 C   0  0  0  0  0  0  0  0  0  0  0  0
    0.2528    1.9264    5.7031 C   0  0  0  0  0  0  0  0  0  0  0  0
   -0.7827    2.2565    6.5354 O   0  0  0  0  0  0  0  0  0  0  0  0
   -0.4823    2.7003    7.8539 C   0  0  0  0  0  0  0  0  0  0  0  0
    1.5925    2.0059    6.1018 C   0  0  0  0  0  0  0  0  0  0  0  0
    4.7552    3.0875    5.7982 C   0  0  0  0  0  0  0  0  0  0  0  0
    4.4404    4.0608    5.1305 O   0  0  0  0  0  0  0  0  0  0  0  0
    5.8066    2.9090    6.6520 N   0  0  0  0  0  0  0  0  0  0  0  0
    6.8019    3.8707    6.8270 C   0  0  0  0  0  0  0  0  0  0  0  0
    6.8323    4.9280    6.1974 O   0  0  0  0  0  0  0  0  0  0  0  0
    7.8847    3.6996    7.8302 C   0  0  0  0  0  0  0  0  0  0  0  0
    7.9966    4.8371    8.6556 C   0  0  0  0  0  0  0  0  0  0  0  0
    8.9295    4.9236    9.6931 C   0  0  0  0  0  0  0  0  0  0  0  0
    9.0477    6.6503   10.4834 Br  0  0  0  0  0  0  0  0  0  0  0  0
    9.7179    3.8141    9.9936 C   0  0  0  0  0  0  0  0  0  0  0  0
   10.6086    3.6404   11.0208 O   0  0  0  0  0  0  0  0  0  0  0  0
   10.3645    4.3801   12.2152 C   0  0  0  0  0  0  0  0  0  0  0  0
   10.9945    3.7156   13.4128 C   0  0  0  0  0  0  0  0  0  0  0  0
   11.9114    4.4242   14.2045 C   0  0  0  0  0  0  0  0  0  0  0  0
   12.4480    3.8473   15.3550 C   0  0  0  0  0  0  0  0  0  0  0  0
   12.0661    2.5605   15.7282 C   0  0  0  0  0  0  0  0  0  0  0  0
   11.1497    1.8501   14.9531 C   0  0  0  0  0  0  0  0  0  0  0  0
   10.6145    2.4249   13.7990 C   0  0  0  0  0  0  0  0  0  0  0  0
    9.6536    2.7073    9.1266 C   0  0  0  0  0  0  0  0  0  0  0  0
    8.7946    2.6524    8.0065 C   0  0  0  0  0  0  0  0  0  0  0  0
    9.0071    1.5155    7.2755 O   0  0  0  0  0  0  0  0  0  0  0  0
    8.6475    1.4358    5.9044 C   0  0  0  0  0  0  0  0  0  0  0  0
    9.7688    1.9034    4.9803 C   0  0  0  0  0  0  0  0  0  0  0  0
    9.3227    2.0849    3.5804 N   0  0  0  0  0  0  0  0  0  0  0  0
   10.4753    2.4754    2.7333 C   0  0  0  0  0  0  0  0  0  0  0  0
   10.9866    3.8985    3.0206 C   0  0  0  0  0  0  0  0  0  0  0  0
    9.9463    4.8776    2.8991 O   0  0  0  0  0  0  0  0  0  0  0  0
    8.8160    4.5571    3.7239 C   0  0  0  0  0  0  0  0  0  0  0  0
    8.2976    3.1477    3.4024 C   0  0  0  0  0  0  0  0  0  0  0  0
    5.7514    1.6385    7.1562 C   0  0  0  0  0  0  0  0  0  0  0  0
    6.3312    1.1578    8.1006 O   0  0  0  0  0  0  0  0  0  0  0  0
    4.8225   -1.3678    5.5360 C   0  0  0  0  0  0  0  0  0  0  0  0
    4.5307   -2.7356    5.5807 C   0  0  0  0  0  0  0  0  0  0  0  0
    4.9914   -3.3850    4.4695 O   0  0  0  0  0  0  0  0  0  0  0  0
    4.7050   -4.7616    4.2956 C   0  0  0  0  0  0  0  0  0  0  0  0
    1.6103   -5.4976    6.6991 H   0  0  0  0  0  0  0  0  0  0  0  0
    1.5154   -3.8614    7.3398 H   0  0  0  0  0  0  0  0  0  0  0  0
    2.2787   -5.1632    8.3114 H   0  0  0  0  0  0  0  0  0  0  0  0
    3.0973   -2.7702    8.6787 H   0  0  0  0  0  0  0  0  0  0  0  0
    3.5751   -0.3795    8.5447 H   0  0  0  0  0  0  0  0  0  0  0  0
    3.1571    0.9858    3.2469 H   0  0  0  0  0  0  0  0  0  0  0  0
    0.8069    0.8171    2.5259 H   0  0  0  0  0  0  0  0  0  0  0  0
   -3.2817    1.4865    3.8751 H   0  0  0  0  0  0  0  0  0  0  0  0
   -2.4337    2.7512    4.7624 H   0  0  0  0  0  0  0  0  0  0  0  0
   -2.5400    1.0568    5.4105 H   0  0  0  0  0  0  0  0  0  0  0  0
   -1.4229    2.9847    8.3350 H   0  0  0  0  0  0  0  0  0  0  0  0
    0.1608    3.5867    7.8444 H   0  0  0  0  0  0  0  0  0  0  0  0
   -0.0364    1.8924    8.4435 H   0  0  0  0  0  0  0  0  0  0  0  0
    1.8490    2.3302    7.1058 H   0  0  0  0  0  0  0  0  0  0  0  0
    7.3523    5.6963    8.4626 H   0  0  0  0  0  0  0  0  0  0  0  0
    9.2923    4.4753   12.4269 H   0  0  0  0  0  0  0  0  0  0  0  0
   10.8234    5.3654   12.1015 H   0  0  0  0  0  0  0  0  0  0  0  0
   12.2087    5.4348   13.9344 H   0  0  0  0  0  0  0  0  0  0  0  0
   13.1536    4.4061   15.9623 H   0  0  0  0  0  0  0  0  0  0  0  0
   12.4811    2.1124   16.6270 H   0  0  0  0  0  0  0  0  0  0  0  0
   10.8475    0.8491   15.2503 H   0  0  0  0  0  0  0  0  0  0  0  0
    9.8910    1.8676   13.2081 H   0  0  0  0  0  0  0  0  0  0  0  0
   10.3088    1.8563    9.3211 H   0  0  0  0  0  0  0  0  0  0  0  0
    7.7572    2.0009    5.6956 H   0  0  0  0  0  0  0  0  0  0  0  0
    8.3917    0.3935    5.6846 H   0  0  0  0  0  0  0  0  0  0  0  0
   10.5558    1.1379    5.0141 H   0  0  0  0  0  0  0  0  0  0  0  0
   10.2220    2.8075    5.3980 H   0  0  0  0  0  0  0  0  0  0  0  0
   10.1492    2.4210    1.6869 H   0  0  0  0  0  0  0  0  0  0  0  0
   11.2875    1.7493    2.8379 H   0  0  0  0  0  0  0  0  0  0  0  0
   11.7612    4.1635    2.2958 H   0  0  0  0  0  0  0  0  0  0  0  0
   11.4330    3.9792    4.0154 H   0  0  0  0  0  0  0  0  0  0  0  0
    8.0306    5.2934    3.5236 H   0  0  0  0  0  0  0  0  0  0  0  0
    9.0979    4.6579    4.7785 H   0  0  0  0  0  0  0  0  0  0  0  0
    7.9836    3.1251    2.3499 H   0  0  0  0  0  0  0  0  0  0  0  0
    7.3850    2.9313    3.9631 H   0  0  0  0  0  0  0  0  0  0  0  0
    5.3553   -0.9829    4.6670 H   0  0  0  0  0  0  0  0  0  0  0  0
    5.1631   -5.0743    3.3562 H   0  0  0  0  0  0  0  0  0  0  0  0
    3.6258   -4.9264    4.2060 H   0  0  0  0  0  0  0  0  0  0  0  0
    5.1482   -5.3697    5.0934 H   0  0  0  0  0  0  0  0  0  0  0  0
  1  2  1  0  0  0  0
  1 54  1  0  0  0  0
  1 55  1  0  0  0  0
  1 56  1  0  0  0  0
  2  3  1  0  0  0  0
  3  4  1  0  0  0  0
  3 51  2  0  0  0  0
  4  5  2  0  0  0  0
  4 57  1  0  0  0  0
  5  6  1  0  0  0  0
  5 58  1  0  0  0  0
  6  7  1  0  0  0  0
  6 50  2  0  0  0  0
  7  8  2  0  0  0  0
  7 48  1  0  0  0  0
  8  9  1  0  0  0  0
  8 19  1  0  0  0  0
  9 10  1  0  0  0  0
  9 18  2  0  0  0  0
 10 11  2  0  0  0  0
 10 59  1  0  0  0  0
 11 12  1  0  0  0  0
 11 60  1  0  0  0  0
 12 13  1  0  0  0  0
 12 15  2  0  0  0  0
 13 14  1  0  0  0  0
 14 61  1  0  0  0  0
 14 62  1  0  0  0  0
 14 63  1  0  0  0  0
 15 16  1  0  0  0  0
 15 18  1  0  0  0  0
 16 17  1  0  0  0  0
 17 64  1  0  0  0  0
 17 65  1  0  0  0  0
 17 66  1  0  0  0  0
 18 67  1  0  0  0  0
 19 20  2  0  0  0  0
 19 21  1  0  0  0  0
 21 22  1  0  0  0  0
 21 48  1  0  0  0  0
 22 23  2  0  0  0  0
 22 24  1  0  0  0  0
 24 25  1  0  0  0  0
 24 38  2  0  0  0  0
 25 26  2  0  0  0  0
 25 68  1  0  0  0  0
 26 27  1  0  0  0  0
 26 28  1  0  0  0  0
 28 29  1  0  0  0  0
 28 37  2  0  0  0  0
 29 30  1  0  0  0  0
 30 31  1  0  0  0  0
 30 69  1  0  0  0  0
 30 70  1  0  0  0  0
 31 32  1  0  0  0  0
 31 36  2  0  0  0  0
 32 33  2  0  0  0  0
 32 71  1  0  0  0  0
 33 34  1  0  0  0  0
 33 72  1  0  0  0  0
 34 35  2  0  0  0  0
 34 73  1  0  0  0  0
 35 36  1  0  0  0  0
 35 74  1  0  0  0  0
 36 75  1  0  0  0  0
 37 38  1  0  0  0  0
 37 76  1  0  0  0  0
 38 39  1  0  0  0  0
 39 40  1  0  0  0  0
 40 41  1  0  0  0  0
 40 77  1  0  0  0  0
 40 78  1  0  0  0  0
 41 42  1  0  0  0  0
 41 79  1  0  0  0  0
 41 80  1  0  0  0  0
 42 43  1  0  0  0  0
 42 47  1  0  0  0  0
 43 44  1  0  0  0  0
 43 81  1  0  0  0  0
 43 82  1  0  0  0  0
 44 45  1  0  0  0  0
 44 83  1  0  0  0  0
 44 84  1  0  0  0  0
 45 46  1  0  0  0  0
 46 47  1  0  0  0  0
 46 85  1  0  0  0  0
 46 86  1  0  0  0  0
 47 87  1  0  0  0  0
 47 88  1  0  0  0  0
 48 49  2  0  0  0  0
 50 51  1  0  0  0  0
 50 89  1  0  0  0  0
 51 52  1  0  0  0  0
 52 53  1  0  0  0  0
 53 90  1  0  0  0  0
 53 91  1  0  0  0  0
 53 92  1  0  0  0  0
M  END
>  <Energy>
233.192

$$$$