122185093
  -OEChem-03242010103D

 80 84  0     0  0  0  0  0  0999 V2000
   -5.6484   -1.9559   -2.6100 Br  0  0  0  0  0  0  0  0  0  0  0  0
    2.1148   -3.4819   -0.5075 O   0  0  0  0  0  0  0  0  0  0  0  0
   -0.6152    0.1584   -1.2235 O   0  0  0  0  0  0  0  0  0  0  0  0
   -1.3580   -1.8543    1.6514 O   0  0  0  0  0  0  0  0  0  0  0  0
   -0.5768   -3.9777   -1.4113 O   0  0  0  0  0  0  0  0  0  0  0  0
    6.3794    0.1410    2.0926 O   0  0  0  0  0  0  0  0  0  0  0  0
    1.3204    4.4509    0.9933 O   0  0  0  0  0  0  0  0  0  0  0  0
    8.0632   -1.1847    0.3220 O   0  0  0  0  0  0  0  0  0  0  0  0
    3.1228    5.3721   -0.9122 O   0  0  0  0  0  0  0  0  0  0  0  0
   -5.8421   -0.9879    0.3497 O   0  0  0  0  0  0  0  0  0  0  0  0
    0.5136   -1.6412    3.7239 O   0  0  0  0  0  0  0  0  0  0  0  0
    0.3807   -1.9374   -0.8170 N   0  0  0  0  0  0  0  0  0  0  0  0
    1.7167   -0.0633   -0.7564 C   0  0  0  0  0  0  0  0  0  0  0  0
    2.5184   -1.1250   -0.5692 C   0  0  0  0  0  0  0  0  0  0  0  0
    1.6812   -2.3469   -0.6320 C   0  0  0  0  0  0  0  0  0  0  0  0
    0.3324   -0.5605   -0.9472 C   0  0  0  0  0  0  0  0  0  0  0  0
    2.0816    1.3544   -0.7945 C   0  0  0  0  0  0  0  0  0  0  0  0
    3.9637   -1.1391   -0.3342 C   0  0  0  0  0  0  0  0  0  0  0  0
   -0.6845   -2.8472   -0.9391 C   0  0  0  0  0  0  0  0  0  0  0  0
   -2.0372   -2.3576   -0.5937 C   0  0  0  0  0  0  0  0  0  0  0  0
    4.4953   -0.4867    0.7782 C   0  0  0  0  0  0  0  0  0  0  0  0
    1.5242    2.2426    0.1253 C   0  0  0  0  0  0  0  0  0  0  0  0
    4.8088   -1.8043   -1.2223 C   0  0  0  0  0  0  0  0  0  0  0  0
    2.9861    1.8169   -1.7504 C   0  0  0  0  0  0  0  0  0  0  0  0
    5.8720   -0.4996    1.0025 C   0  0  0  0  0  0  0  0  0  0  0  0
    1.8713    3.5932    0.0894 C   0  0  0  0  0  0  0  0  0  0  0  0
   -2.3202   -1.8814    0.6865 C   0  0  0  0  0  0  0  0  0  0  0  0
    3.3330    3.1674   -1.7865 C   0  0  0  0  0  0  0  0  0  0  0  0
    6.1855   -1.8170   -0.9982 C   0  0  0  0  0  0  0  0  0  0  0  0
    6.7171   -1.1647    0.1143 C   0  0  0  0  0  0  0  0  0  0  0  0
    2.7757    4.0556   -0.8666 C   0  0  0  0  0  0  0  0  0  0  0  0
   -3.0354   -2.3759   -1.5677 C   0  0  0  0  0  0  0  0  0  0  0  0
   -3.6017   -1.4233    0.9926 C   0  0  0  0  0  0  0  0  0  0  0  0
   -4.6000   -1.4414    0.0185 C   0  0  0  0  0  0  0  0  0  0  0  0
   -4.3169   -1.9178   -1.2616 C   0  0  0  0  0  0  0  0  0  0  0  0
   -1.4596   -0.8297    2.6381 C   0  0  0  0  0  0  0  0  0  0  0  0
   -5.9418    0.3670    0.7830 C   0  0  0  0  0  0  0  0  0  0  0  0
   -7.3030    0.8938    0.4349 C   0  0  0  0  0  0  0  0  0  0  0  0
   -0.0700   -0.4841    3.1375 C   0  0  0  0  0  0  0  0  0  0  0  0
    0.4050    3.8976    1.9367 C   0  0  0  0  0  0  0  0  0  0  0  0
    5.4475    0.7967    2.9506 C   0  0  0  0  0  0  0  0  0  0  0  0
    8.8559   -1.8870   -0.6335 C   0  0  0  0  0  0  0  0  0  0  0  0
    4.0535    5.7621   -1.9203 C   0  0  0  0  0  0  0  0  0  0  0  0
   -7.5181    1.5113   -0.7971 C   0  0  0  0  0  0  0  0  0  0  0  0
   -8.3537    0.7655    1.3435 C   0  0  0  0  0  0  0  0  0  0  0  0
   -8.7836    2.0005   -1.1206 C   0  0  0  0  0  0  0  0  0  0  0  0
   -9.6193    1.2545    1.0200 C   0  0  0  0  0  0  0  0  0  0  0  0
   -9.8343    1.8721   -0.2121 C   0  0  0  0  0  0  0  0  0  0  0  0
    0.8277    1.8303    0.8479 H   0  0  0  0  0  0  0  0  0  0  0  0
    3.7940    0.0063    1.4439 H   0  0  0  0  0  0  0  0  0  0  0  0
    4.4106   -2.3142   -2.0964 H   0  0  0  0  0  0  0  0  0  0  0  0
    3.4254    1.1412   -2.4805 H   0  0  0  0  0  0  0  0  0  0  0  0
    6.7803   -2.3524   -1.7301 H   0  0  0  0  0  0  0  0  0  0  0  0
    4.0400    3.4551   -2.5569 H   0  0  0  0  0  0  0  0  0  0  0  0
   -2.8094   -2.7448   -2.5659 H   0  0  0  0  0  0  0  0  0  0  0  0
   -3.8616   -1.0864    1.9920 H   0  0  0  0  0  0  0  0  0  0  0  0
   -1.9005    0.0890    2.2316 H   0  0  0  0  0  0  0  0  0  0  0  0
   -2.0684   -1.2068    3.4678 H   0  0  0  0  0  0  0  0  0  0  0  0
   -5.1721    0.9943    0.3128 H   0  0  0  0  0  0  0  0  0  0  0  0
   -5.7846    0.4130    1.8676 H   0  0  0  0  0  0  0  0  0  0  0  0
   -0.1117    0.3102    3.8884 H   0  0  0  0  0  0  0  0  0  0  0  0
    0.5728   -0.1721    2.3098 H   0  0  0  0  0  0  0  0  0  0  0  0
    4.9255    1.6098    2.4344 H   0  0  0  0  0  0  0  0  0  0  0  0
    6.0238    1.2547    3.7613 H   0  0  0  0  0  0  0  0  0  0  0  0
    4.7566    0.0851    3.4156 H   0  0  0  0  0  0  0  0  0  0  0  0
    0.8919    3.1669    2.5918 H   0  0  0  0  0  0  0  0  0  0  0  0
    0.0656    4.7194    2.5760 H   0  0  0  0  0  0  0  0  0  0  0  0
   -0.4851    3.4899    1.4453 H   0  0  0  0  0  0  0  0  0  0  0  0
    9.8993   -1.8003   -0.3125 H   0  0  0  0  0  0  0  0  0  0  0  0
    8.7902   -1.4298   -1.6267 H   0  0  0  0  0  0  0  0  0  0  0  0
    8.6163   -2.9557   -0.6494 H   0  0  0  0  0  0  0  0  0  0  0  0
    4.2152    6.8395   -1.8100 H   0  0  0  0  0  0  0  0  0  0  0  0
    3.6497    5.6028   -2.9260 H   0  0  0  0  0  0  0  0  0  0  0  0
    5.0265    5.2789   -1.7800 H   0  0  0  0  0  0  0  0  0  0  0  0
   -6.7080    1.6151   -1.5141 H   0  0  0  0  0  0  0  0  0  0  0  0
   -8.1993    0.2844    2.3057 H   0  0  0  0  0  0  0  0  0  0  0  0
   -8.9512    2.4808   -2.0802 H   0  0  0  0  0  0  0  0  0  0  0  0
  -10.4376    1.1540    1.7270 H   0  0  0  0  0  0  0  0  0  0  0  0
  -10.8198    2.2526   -0.4642 H   0  0  0  0  0  0  0  0  0  0  0  0
    1.4037   -1.3899    4.0243 H   0  0  0  0  0  0  0  0  0  0  0  0
  1 35  1  0  0  0  0
  2 15  2  0  0  0  0
  3 16  2  0  0  0  0
  4 27  1  0  0  0  0
  4 36  1  0  0  0  0
  5 19  2  0  0  0  0
  6 25  1  0  0  0  0
  6 41  1  0  0  0  0
  7 26  1  0  0  0  0
  7 40  1  0  0  0  0
  8 30  1  0  0  0  0
  8 42  1  0  0  0  0
  9 31  1  0  0  0  0
  9 43  1  0  0  0  0
 10 34  1  0  0  0  0
 10 37  1  0  0  0  0
 11 39  1  0  0  0  0
 11 80  1  0  0  0  0
 12 15  1  0  0  0  0
 12 16  1  0  0  0  0
 12 19  1  0  0  0  0
 13 14  2  0  0  0  0
 13 16  1  0  0  0  0
 13 17  1  0  0  0  0
 14 15  1  0  0  0  0
 14 18  1  0  0  0  0
 17 22  2  0  0  0  0
 17 24  1  0  0  0  0
 18 21  2  0  0  0  0
 18 23  1  0  0  0  0
 19 20  1  0  0  0  0
 20 27  1  0  0  0  0
 20 32  2  0  0  0  0
 21 25  1  0  0  0  0
 21 50  1  0  0  0  0
 22 26  1  0  0  0  0
 22 49  1  0  0  0  0
 23 29  2  0  0  0  0
 23 51  1  0  0  0  0
 24 28  2  0  0  0  0
 24 52  1  0  0  0  0
 25 30  2  0  0  0  0
 26 31  2  0  0  0  0
 27 33  2  0  0  0  0
 28 31  1  0  0  0  0
 28 54  1  0  0  0  0
 29 30  1  0  0  0  0
 29 53  1  0  0  0  0
 32 35  1  0  0  0  0
 32 55  1  0  0  0  0
 33 34  1  0  0  0  0
 33 56  1  0  0  0  0
 34 35  2  0  0  0  0
 36 39  1  0  0  0  0
 36 57  1  0  0  0  0
 36 58  1  0  0  0  0
 37 38  1  0  0  0  0
 37 59  1  0  0  0  0
 37 60  1  0  0  0  0
 38 44  2  0  0  0  0
 38 45  1  0  0  0  0
 39 61  1  0  0  0  0
 39 62  1  0  0  0  0
 40 66  1  0  0  0  0
 40 67  1  0  0  0  0
 40 68  1  0  0  0  0
 41 63  1  0  0  0  0
 41 64  1  0  0  0  0
 41 65  1  0  0  0  0
 42 69  1  0  0  0  0
 42 70  1  0  0  0  0
 42 71  1  0  0  0  0
 43 72  1  0  0  0  0
 43 73  1  0  0  0  0
 43 74  1  0  0  0  0
 44 46  1  0  0  0  0
 44 75  1  0  0  0  0
 45 47  2  0  0  0  0
 45 76  1  0  0  0  0
 46 48  2  0  0  0  0
 46 77  1  0  0  0  0
 47 48  1  0  0  0  0
 47 78  1  0  0  0  0
 48 79  1  0  0  0  0
M  END
> <PUBCHEM_COMPOUND_CID>
122185093

> <PUBCHEM_CONFORMER_RMSD>
1.4

> <PUBCHEM_CONFORMER_DIVERSEORDER>
1
31
8
33
12
38
44
36
54
55
41
35
19
26
21
28
24
56
15
34
11
20
52
47
10
18
53
22
25
42
51
16
5
23
17
39
48
40
30
7
27
4
45
43
57
37
13
29
6
14
49
32
2
9
46
50
3

> <PUBCHEM_MMFF94_PARTIAL_CHARGES>
62
1 -0.11
10 -0.36
11 -0.68
12 -0.18
13 -0.01
14 -0.01
15 0.62
16 0.62
17 0.03
18 0.03
19 0.54
2 -0.57
20 0.09
21 -0.15
22 -0.15
23 -0.15
24 -0.15
25 0.08
26 0.08
27 0.08
28 -0.15
29 -0.15
3 -0.57
30 0.08
31 0.08
32 -0.15
33 -0.15
34 0.08
35 0.11
36 0.28
37 0.42
38 -0.14
39 0.28
4 -0.36
40 0.28
41 0.28
42 0.28
43 0.28
44 -0.15
45 -0.15
46 -0.15
47 -0.15
48 -0.15
49 0.15
5 -0.57
50 0.15
51 0.15
52 0.15
53 0.15
54 0.15
55 0.15
56 0.15
6 -0.36
7 -0.36
75 0.15
76 0.15
77 0.15
78 0.15
79 0.15
8 -0.36
80 0.4
9 -0.36

> <PUBCHEM_EFFECTIVE_ROTOR_COUNT>
14.2

> <PUBCHEM_PHARMACOPHORE_FEATURES>
17
1 1 hydrophobe
1 10 acceptor
1 11 acceptor
1 11 donor
1 2 acceptor
1 3 acceptor
1 4 acceptor
1 5 acceptor
1 6 acceptor
1 7 acceptor
1 8 acceptor
1 9 acceptor
5 12 13 14 15 16 rings
6 17 22 24 26 28 31 rings
6 18 21 23 25 29 30 rings
6 20 27 32 33 34 35 rings
6 38 44 45 46 47 48 rings

> <PUBCHEM_HEAVY_ATOM_COUNT>
48

> <PUBCHEM_ATOM_DEF_STEREO_COUNT>
0

> <PUBCHEM_ATOM_UDEF_STEREO_COUNT>
0

> <PUBCHEM_BOND_DEF_STEREO_COUNT>
0

> <PUBCHEM_BOND_UDEF_STEREO_COUNT>
0

> <PUBCHEM_ISOTOPIC_ATOM_COUNT>
0

> <PUBCHEM_COMPONENT_COUNT>
1

> <PUBCHEM_CACTVS_TAUTO_COUNT>
1

> <PUBCHEM_CONFORMER_ID>
0748658500000001

> <PUBCHEM_MMFF94_ENERGY>
190.9939

> <PUBCHEM_FEATURE_SELFOVERLAP>
86.301

> <PUBCHEM_SHAPE_FINGERPRINT>
11456790 92 17894632539195528515
12166972 35 17988076811336661826
14117953 113 18271814492450113054
14395042 24 18409163312873153536
15347591 1 18264495173031616111
15840311 113 17632573838150892014
16087824 20 18339927013303660574
19302320 297 18409735045548846413
21033648 29 17916847098273214098
21133410 90 17131824387189975577
21647283 7 18113345228479207561
24771293 8 18129368445478957870
24893992 56 17821454560943444489
249057 3 18342177752540037223
3178227 256 18334576811044810287
57527358 35 18120378910744820927
6081469 158 18130790010755343250
6371009 1 18272375239855749945
6523845 18 16950564381261673323

> <PUBCHEM_SHAPE_MULTIPOLES>
930.09
24.08
5.73
2.55
38.77
8.61
-1.89
5.03
-0.52
-5.97
2.88
-0.54
0.04
-1.95

> <PUBCHEM_SHAPE_SELFOVERLAP>
2019.142

> <PUBCHEM_SHAPE_VOLUME>
520.8

> <PUBCHEM_COORDINATE_TYPE>
2
5
10

$$$$