40
 OpenBabel03292022263D

 89 93  0  0  1  0  0  0  0  0999 V2000
    1.4180   -0.7659    0.1023 C   0  0  0  0  0  0  0  0  0  0  0  0
    2.5854    0.0040   -0.1631 O   0  0  0  0  0  0  0  0  0  0  0  0
    3.1940    0.5905    0.9131 C   0  0  0  0  0  0  0  0  0  0  0  0
    4.2930    1.3984    0.6104 C   0  0  0  0  0  0  0  0  0  0  0  0
    4.9945    2.0846    1.6128 C   0  0  0  0  0  0  0  0  0  0  0  0
    6.1009    2.7516    1.1584 O   0  0  0  0  0  0  0  0  0  0  0  0
    6.2716    4.0890    1.6126 C   0  0  0  0  0  0  0  0  0  0  0  0
    4.5949    1.9671    2.9515 C   0  0  0  0  0  0  0  0  0  0  0  0
    3.4781    1.1680    3.2372 C   0  0  0  0  0  0  0  0  0  0  0  0
    2.8031    0.4570    2.2402 C   0  0  0  0  0  0  0  0  0  0  0  0
    2.9145    1.0612    4.4925 O   0  0  0  0  0  0  0  0  0  0  0  0
    3.2178    2.1647    5.3846 C   0  0  2  0  0  0  0  0  0  0  0  0
    2.4129    3.4271    5.0276 C   0  0  0  0  0  0  0  0  0  0  0  0
    1.4349    3.4165    4.0167 C   0  0  0  0  0  0  0  0  0  0  0  0
    0.7201    4.5637    3.6603 C   0  0  0  0  0  0  0  0  0  0  0  0
   -0.2143    4.5970    2.6520 O   0  0  0  0  0  0  0  0  0  0  0  0
   -0.6832    3.3470    2.1597 C   0  0  0  0  0  0  0  0  0  0  0  0
    0.9561    5.7651    4.3494 C   0  0  0  0  0  0  0  0  0  0  0  0
    0.2715    6.8635    3.8796 O   0  0  0  0  0  0  0  0  0  0  0  0
   -0.2900    7.7124    4.8727 C   0  0  0  0  0  0  0  0  0  0  0  0
    1.8959    5.7965    5.3986 C   0  0  0  0  0  0  0  0  0  0  0  0
    2.1046    6.9976    6.0265 O   0  0  0  0  0  0  0  0  0  0  0  0
    3.0270    7.0373    7.1066 C   0  0  0  0  0  0  0  0  0  0  0  0
    2.5952    4.6239    5.7338 C   0  0  0  0  0  0  0  0  0  0  0  0
    4.7609    2.2690    5.4552 C   0  0  2  0  0  0  0  0  0  0  0  0
    5.3092    3.2130    6.3957 O   0  0  0  0  0  0  0  0  0  0  0  0
    5.2624    2.8628    7.7014 C   0  0  0  0  0  0  0  0  0  0  0  0
    4.6259    1.9358    8.1678 O   0  0  0  0  0  0  0  0  0  0  0  0
    6.1330    3.7721    8.4955 C   0  0  0  0  0  0  0  0  0  0  0  0
    7.1494    4.5368    7.9005 C   0  0  0  0  0  0  0  0  0  0  0  0
    8.0057    5.3039    8.6939 C   0  0  0  0  0  0  0  0  0  0  0  0
    7.8302    5.3229   10.0735 C   0  0  0  0  0  0  0  0  0  0  0  0
    8.6474    6.0754   10.8262 F   0  0  0  0  0  0  0  0  0  0  0  0
    6.7797    4.6255   10.6757 C   0  0  0  0  0  0  0  0  0  0  0  0
    6.5849    4.7887   12.0655 N   0  0  0  0  0  0  0  0  0  0  0  0
    5.3434    4.7353   12.6660 C   0  0  0  0  0  0  0  0  0  0  0  0
    4.2792    4.5387   12.0920 O   0  0  0  0  0  0  0  0  0  0  0  0
    5.3928    5.0532   14.1164 C   0  0  0  0  0  0  0  0  0  0  0  0
    4.2435    5.3770   14.7284 C   0  0  0  0  0  0  0  0  0  0  0  0
    4.1063    5.6716   16.1631 C   0  0  0  0  0  0  0  0  0  0  0  0
    2.9102    5.2998   16.7850 C   0  0  0  0  0  0  0  0  0  0  0  0
    2.7222    5.5880   18.1399 C   0  0  0  0  0  0  0  0  0  0  0  0
    3.7102    6.2555   18.8922 C   0  0  0  0  0  0  0  0  0  0  0  0
    3.3188    6.4363   20.1962 O   0  0  0  0  0  0  0  0  0  0  0  0
    4.2179    7.0474   21.0989 C   0  0  0  0  0  0  0  0  0  0  0  0
    4.9055    6.6545   18.2569 C   0  0  0  0  0  0  0  0  0  0  0  0
    5.8344    7.3306   18.9973 O   0  0  0  0  0  0  0  0  0  0  0  0
    7.0487    7.7156   18.3705 C   0  0  0  0  0  0  0  0  0  0  0  0
    5.0841    6.3562   16.8913 C   0  0  0  0  0  0  0  0  0  0  0  0
    5.9531    3.8207    9.8839 C   0  0  0  0  0  0  0  0  0  0  0  0
    5.3037    2.6548    4.0806 C   0  0  0  0  0  0  0  0  0  0  0  0
    1.0264   -1.1257   -0.8543 H   0  0  0  0  0  0  0  0  0  0  0  0
    0.6369   -0.1557    0.5711 H   0  0  0  0  0  0  0  0  0  0  0  0
    1.6556   -1.6412    0.7169 H   0  0  0  0  0  0  0  0  0  0  0  0
    4.6079    1.4969   -0.4264 H   0  0  0  0  0  0  0  0  0  0  0  0
    6.7764    4.6533    0.8220 H   0  0  0  0  0  0  0  0  0  0  0  0
    6.9344    4.1018    2.4833 H   0  0  0  0  0  0  0  0  0  0  0  0
    5.3239    4.5929    1.8300 H   0  0  0  0  0  0  0  0  0  0  0  0
    1.9552   -0.1535    2.5307 H   0  0  0  0  0  0  0  0  0  0  0  0
    2.8376    1.8548    6.3651 H   0  0  0  0  0  0  0  0  0  0  0  0
    1.2399    2.4930    3.4860 H   0  0  0  0  0  0  0  0  0  0  0  0
   -1.5244    3.5422    1.4880 H   0  0  0  0  0  0  0  0  0  0  0  0
   -1.0515    2.7113    2.9728 H   0  0  0  0  0  0  0  0  0  0  0  0
    0.0921    2.8350    1.5794 H   0  0  0  0  0  0  0  0  0  0  0  0
   -1.1451    8.2279    4.4233 H   0  0  0  0  0  0  0  0  0  0  0  0
    0.4271    8.4841    5.1667 H   0  0  0  0  0  0  0  0  0  0  0  0
   -0.6564    7.1568    5.7427 H   0  0  0  0  0  0  0  0  0  0  0  0
    3.0494    8.0622    7.4883 H   0  0  0  0  0  0  0  0  0  0  0  0
    4.0378    6.7866    6.7687 H   0  0  0  0  0  0  0  0  0  0  0  0
    2.7073    6.3844    7.9256 H   0  0  0  0  0  0  0  0  0  0  0  0
    3.2984    4.6303    6.5569 H   0  0  0  0  0  0  0  0  0  0  0  0
    5.1635    1.2732    5.6956 H   0  0  0  0  0  0  0  0  0  0  0  0
    7.2989    4.5271    6.8234 H   0  0  0  0  0  0  0  0  0  0  0  0
    8.8002    5.8923    8.2451 H   0  0  0  0  0  0  0  0  0  0  0  0
    7.3413    5.2382   12.5697 H   0  0  0  0  0  0  0  0  0  0  0  0
    6.3373    4.9742   14.6350 H   0  0  0  0  0  0  0  0  0  0  0  0
    3.3160    5.4082   14.1580 H   0  0  0  0  0  0  0  0  0  0  0  0
    2.1277    4.7820   16.2457 H   0  0  0  0  0  0  0  0  0  0  0  0
    1.7977    5.2883   18.6218 H   0  0  0  0  0  0  0  0  0  0  0  0
    3.7420    7.0356   22.0840 H   0  0  0  0  0  0  0  0  0  0  0  0
    4.3916    8.0938   20.8347 H   0  0  0  0  0  0  0  0  0  0  0  0
    5.1493    6.4799   21.1842 H   0  0  0  0  0  0  0  0  0  0  0  0
    7.6617    8.2237   19.1189 H   0  0  0  0  0  0  0  0  0  0  0  0
    6.8650    8.4229   17.5554 H   0  0  0  0  0  0  0  0  0  0  0  0
    7.6076    6.8408   18.0209 H   0  0  0  0  0  0  0  0  0  0  0  0
    5.9765    6.6670   16.3769 H   0  0  0  0  0  0  0  0  0  0  0  0
    5.1713    3.2141   10.3382 H   0  0  0  0  0  0  0  0  0  0  0  0
    6.3752    2.4205    4.0502 H   0  0  0  0  0  0  0  0  0  0  0  0
    5.2036    3.7404    3.9711 H   0  0  0  0  0  0  0  0  0  0  0  0
  1  2  1  0  0  0  0
  1 52  1  0  0  0  0
  1 53  1  0  0  0  0
  1 54  1  0  0  0  0
  2  3  1  0  0  0  0
  3  4  1  0  0  0  0
  3 10  2  0  0  0  0
  4  5  2  0  0  0  0
  4 55  1  0  0  0  0
  5  6  1  0  0  0  0
  5  8  1  0  0  0  0
  6  7  1  0  0  0  0
  7 56  1  0  0  0  0
  7 57  1  0  0  0  0
  7 58  1  0  0  0  0
  8  9  2  0  0  0  0
  8 51  1  0  0  0  0
  9 10  1  0  0  0  0
  9 11  1  0  0  0  0
 10 59  1  0  0  0  0
 11 12  1  0  0  0  0
 12 13  1  0  0  0  0
 12 25  1  0  0  0  0
 12 60  1  1  0  0  0
 13 14  1  0  0  0  0
 13 24  2  0  0  0  0
 14 15  2  0  0  0  0
 14 61  1  0  0  0  0
 15 16  1  0  0  0  0
 15 18  1  0  0  0  0
 16 17  1  0  0  0  0
 17 62  1  0  0  0  0
 17 63  1  0  0  0  0
 17 64  1  0  0  0  0
 18 19  1  0  0  0  0
 18 21  2  0  0  0  0
 19 20  1  0  0  0  0
 20 65  1  0  0  0  0
 20 66  1  0  0  0  0
 20 67  1  0  0  0  0
 21 22  1  0  0  0  0
 21 24  1  0  0  0  0
 22 23  1  0  0  0  0
 23 68  1  0  0  0  0
 23 69  1  0  0  0  0
 23 70  1  0  0  0  0
 24 71  1  0  0  0  0
 25 51  1  0  0  0  0
 25 26  1  0  0  0  0
 25 72  1  1  0  0  0
 26 27  1  0  0  0  0
 27 28  2  0  0  0  0
 27 29  1  0  0  0  0
 29 30  1  0  0  0  0
 29 50  2  0  0  0  0
 30 31  2  0  0  0  0
 30 73  1  0  0  0  0
 31 32  1  0  0  0  0
 31 74  1  0  0  0  0
 32 33  1  0  0  0  0
 32 34  2  0  0  0  0
 34 35  1  0  0  0  0
 34 50  1  0  0  0  0
 35 36  1  0  0  0  0
 35 75  1  0  0  0  0
 36 37  2  0  0  0  0
 36 38  1  0  0  0  0
 38 39  2  0  0  0  0
 38 76  1  0  0  0  0
 39 40  1  0  0  0  0
 39 77  1  0  0  0  0
 40 41  1  0  0  0  0
 40 49  2  0  0  0  0
 41 42  2  0  0  0  0
 41 78  1  0  0  0  0
 42 43  1  0  0  0  0
 42 79  1  0  0  0  0
 43 44  1  0  0  0  0
 43 46  2  0  0  0  0
 44 45  1  0  0  0  0
 45 80  1  0  0  0  0
 45 81  1  0  0  0  0
 45 82  1  0  0  0  0
 46 47  1  0  0  0  0
 46 49  1  0  0  0  0
 47 48  1  0  0  0  0
 48 83  1  0  0  0  0
 48 84  1  0  0  0  0
 48 85  1  0  0  0  0
 49 86  1  0  0  0  0
 50 87  1  0  0  0  0
 51 88  1  0  0  0  0
 51 89  1  0  0  0  0
M  END
>  <Energy>
173.299

$$$$