41
 OpenBabel03292022263D

 93 97  0  0  1  0  0  0  0  0999 V2000
    1.3814   -0.5626   -0.3252 C   0  0  0  0  0  0  0  0  0  0  0  0
    2.5770    0.1800   -0.1079 O   0  0  0  0  0  0  0  0  0  0  0  0
    3.2291   -0.0374    1.0744 C   0  0  0  0  0  0  0  0  0  0  0  0
    4.3759    0.7320    1.2818 C   0  0  0  0  0  0  0  0  0  0  0  0
    5.1438    0.6158    2.4536 C   0  0  0  0  0  0  0  0  0  0  0  0
    6.2744    1.3895    2.4399 O   0  0  0  0  0  0  0  0  0  0  0  0
    6.6429    2.0411    3.6487 C   0  0  0  0  0  0  0  0  0  0  0  0
    4.7641   -0.3019    3.4447 C   0  0  0  0  0  0  0  0  0  0  0  0
    3.5858   -1.0419    3.2342 C   0  0  0  0  0  0  0  0  0  0  0  0
    2.8419   -0.9351    2.0569 C   0  0  0  0  0  0  0  0  0  0  0  0
    3.0295   -1.8854    4.1710 O   0  0  0  0  0  0  0  0  0  0  0  0
    3.4822   -1.6681    5.5273 C   0  0  2  0  0  0  0  0  0  0  0  0
    2.8457   -0.4186    6.1589 C   0  0  0  0  0  0  0  0  0  0  0  0
    1.8664    0.3210    5.4769 C   0  0  0  0  0  0  0  0  0  0  0  0
    1.3398    1.5110    5.9872 C   0  0  0  0  0  0  0  0  0  0  0  0
    0.4231    2.2800    5.3065 O   0  0  0  0  0  0  0  0  0  0  0  0
   -0.2497    1.6578    4.2155 C   0  0  0  0  0  0  0  0  0  0  0  0
    1.7703    1.9769    7.2421 C   0  0  0  0  0  0  0  0  0  0  0  0
    1.2658    3.2025    7.6167 O   0  0  0  0  0  0  0  0  0  0  0  0
    0.9432    3.3729    8.9911 C   0  0  0  0  0  0  0  0  0  0  0  0
    2.7187    1.2282    7.9727 C   0  0  0  0  0  0  0  0  0  0  0  0
    3.1362    1.7385    9.1736 O   0  0  0  0  0  0  0  0  0  0  0  0
    4.0733    0.9932    9.9362 C   0  0  0  0  0  0  0  0  0  0  0  0
    3.2298    0.0325    7.4296 C   0  0  0  0  0  0  0  0  0  0  0  0
    5.0250   -1.7177    5.5209 C   0  0  1  0  0  0  0  0  0  0  0  0
    5.5005   -2.9182    4.8549 O   0  0  0  0  0  0  0  0  0  0  0  0
    5.4552   -4.0755    5.5479 C   0  0  0  0  0  0  0  0  0  0  0  0
    5.1547   -4.1947    6.7146 O   0  0  0  0  0  0  0  0  0  0  0  0
    5.8857   -5.1905    4.6515 C   0  0  0  0  0  0  0  0  0  0  0  0
    5.8116   -5.0701    3.2512 C   0  0  0  0  0  0  0  0  0  0  0  0
    6.2641   -6.1038    2.4314 C   0  0  0  0  0  0  0  0  0  0  0  0
    6.7914   -7.2518    3.0089 C   0  0  0  0  0  0  0  0  0  0  0  0
    7.2165   -8.2489    2.2177 F   0  0  0  0  0  0  0  0  0  0  0  0
    6.8147   -7.4126    4.3950 C   0  0  0  0  0  0  0  0  0  0  0  0
    7.2982   -8.6333    4.9102 N   0  0  0  0  0  0  0  0  0  0  0  0
    6.6660   -9.2958    5.9369 C   0  0  0  0  0  0  0  0  0  0  0  0
    5.6345   -8.9273    6.4940 O   0  0  0  0  0  0  0  0  0  0  0  0
    7.3258  -10.5789    6.2849 C   0  0  0  0  0  0  0  0  0  0  0  0
    6.7111  -11.4024    7.1478 C   0  0  0  0  0  0  0  0  0  0  0  0
    7.2919  -12.6284    7.7101 C   0  0  0  0  0  0  0  0  0  0  0  0
    6.8538  -13.0352    8.9730 C   0  0  0  0  0  0  0  0  0  0  0  0
    7.3769  -14.1789    9.5829 C   0  0  0  0  0  0  0  0  0  0  0  0
    6.9875  -14.6083   10.8312 O   0  0  0  0  0  0  0  0  0  0  0  0
    5.7280  -14.1388   11.3006 C   0  0  0  0  0  0  0  0  0  0  0  0
    8.3736  -14.9310    8.9243 C   0  0  0  0  0  0  0  0  0  0  0  0
    8.8829  -15.9862    9.6494 O   0  0  0  0  0  0  0  0  0  0  0  0
    9.2324  -17.1543    8.9225 C   0  0  0  0  0  0  0  0  0  0  0  0
    8.8201  -14.5325    7.6475 C   0  0  0  0  0  0  0  0  0  0  0  0
    9.8240  -15.2577    7.0582 O   0  0  0  0  0  0  0  0  0  0  0  0
   10.3109  -14.8291    5.7931 C   0  0  0  0  0  0  0  0  0  0  0  0
    8.2525  -13.3980    7.0466 C   0  0  0  0  0  0  0  0  0  0  0  0
    6.3651   -6.3770    5.2218 C   0  0  0  0  0  0  0  0  0  0  0  0
    5.5624   -0.5438    4.7012 C   0  0  0  0  0  0  0  0  0  0  0  0
    1.0043   -0.3106   -1.3208 H   0  0  0  0  0  0  0  0  0  0  0  0
    0.6112   -0.2878    0.4040 H   0  0  0  0  0  0  0  0  0  0  0  0
    1.5725   -1.6410   -0.3083 H   0  0  0  0  0  0  0  0  0  0  0  0
    4.6810    1.4417    0.5153 H   0  0  0  0  0  0  0  0  0  0  0  0
    7.2246    2.9308    3.3879 H   0  0  0  0  0  0  0  0  0  0  0  0
    7.3041    1.3980    4.2362 H   0  0  0  0  0  0  0  0  0  0  0  0
    5.7782    2.3687    4.2353 H   0  0  0  0  0  0  0  0  0  0  0  0
    1.9518   -1.5471    1.9607 H   0  0  0  0  0  0  0  0  0  0  0  0
    3.0982   -2.5265    6.0908 H   0  0  0  0  0  0  0  0  0  0  0  0
    1.5360   -0.0259    4.5058 H   0  0  0  0  0  0  0  0  0  0  0  0
   -1.0357    2.3342    3.8692 H   0  0  0  0  0  0  0  0  0  0  0  0
   -0.7293    0.7244    4.5304 H   0  0  0  0  0  0  0  0  0  0  0  0
    0.4297    1.4865    3.3734 H   0  0  0  0  0  0  0  0  0  0  0  0
    0.2764    4.2384    9.0686 H   0  0  0  0  0  0  0  0  0  0  0  0
    1.8313    3.6177    9.5797 H   0  0  0  0  0  0  0  0  0  0  0  0
    0.4135    2.5066    9.4006 H   0  0  0  0  0  0  0  0  0  0  0  0
    4.2823    1.5560   10.8507 H   0  0  0  0  0  0  0  0  0  0  0  0
    5.0180    0.8774    9.3960 H   0  0  0  0  0  0  0  0  0  0  0  0
    3.6584    0.0231   10.2288 H   0  0  0  0  0  0  0  0  0  0  0  0
    3.9546   -0.5561    7.9822 H   0  0  0  0  0  0  0  0  0  0  0  0
    5.4538   -1.6763    6.5309 H   0  0  0  0  0  0  0  0  0  0  0  0
    5.3988   -4.1739    2.7915 H   0  0  0  0  0  0  0  0  0  0  0  0
    6.1959   -6.0261    1.3520 H   0  0  0  0  0  0  0  0  0  0  0  0
    7.8665   -9.1890    4.2804 H   0  0  0  0  0  0  0  0  0  0  0  0
    8.3158  -10.7663    5.8934 H   0  0  0  0  0  0  0  0  0  0  0  0
    5.7274  -11.1333    7.5328 H   0  0  0  0  0  0  0  0  0  0  0  0
    6.1196  -12.4213    9.4860 H   0  0  0  0  0  0  0  0  0  0  0  0
    5.4954  -14.6655   12.2309 H   0  0  0  0  0  0  0  0  0  0  0  0
    4.9311  -14.3604   10.5823 H   0  0  0  0  0  0  0  0  0  0  0  0
    5.7629  -13.0699   11.5319 H   0  0  0  0  0  0  0  0  0  0  0  0
    9.2729  -17.9878    9.6343 H   0  0  0  0  0  0  0  0  0  0  0  0
   10.2338  -17.0657    8.4924 H   0  0  0  0  0  0  0  0  0  0  0  0
    8.4863  -17.4064    8.1599 H   0  0  0  0  0  0  0  0  0  0  0  0
   11.1269  -15.4973    5.5021 H   0  0  0  0  0  0  0  0  0  0  0  0
   10.7187  -13.8142    5.8468 H   0  0  0  0  0  0  0  0  0  0  0  0
    9.5308  -14.9043    5.0284 H   0  0  0  0  0  0  0  0  0  0  0  0
    8.5636  -13.0880    6.0558 H   0  0  0  0  0  0  0  0  0  0  0  0
    6.4124   -6.4733    6.3050 H   0  0  0  0  0  0  0  0  0  0  0  0
    6.6038   -0.7486    4.4268 H   0  0  0  0  0  0  0  0  0  0  0  0
    5.5220    0.3539    5.3266 H   0  0  0  0  0  0  0  0  0  0  0  0
  1  2  1  0  0  0  0
  1 54  1  0  0  0  0
  1 55  1  0  0  0  0
  1 56  1  0  0  0  0
  2  3  1  0  0  0  0
  3  4  1  0  0  0  0
  3 10  2  0  0  0  0
  4  5  2  0  0  0  0
  4 57  1  0  0  0  0
  5  6  1  0  0  0  0
  5  8  1  0  0  0  0
  6  7  1  0  0  0  0
  7 58  1  0  0  0  0
  7 59  1  0  0  0  0
  7 60  1  0  0  0  0
  8  9  2  0  0  0  0
  8 53  1  0  0  0  0
  9 10  1  0  0  0  0
  9 11  1  0  0  0  0
 10 61  1  0  0  0  0
 11 12  1  0  0  0  0
 12 13  1  0  0  0  0
 12 25  1  0  0  0  0
 12 62  1  1  0  0  0
 13 14  1  0  0  0  0
 13 24  2  0  0  0  0
 14 15  2  0  0  0  0
 14 63  1  0  0  0  0
 15 16  1  0  0  0  0
 15 18  1  0  0  0  0
 16 17  1  0  0  0  0
 17 64  1  0  0  0  0
 17 65  1  0  0  0  0
 17 66  1  0  0  0  0
 18 19  1  0  0  0  0
 18 21  2  0  0  0  0
 19 20  1  0  0  0  0
 20 67  1  0  0  0  0
 20 68  1  0  0  0  0
 20 69  1  0  0  0  0
 21 22  1  0  0  0  0
 21 24  1  0  0  0  0
 22 23  1  0  0  0  0
 23 70  1  0  0  0  0
 23 71  1  0  0  0  0
 23 72  1  0  0  0  0
 24 73  1  0  0  0  0
 25 26  1  0  0  0  0
 25 53  1  0  0  0  0
 25 74  1  1  0  0  0
 26 27  1  0  0  0  0
 27 28  2  0  0  0  0
 27 29  1  0  0  0  0
 29 30  1  0  0  0  0
 29 52  2  0  0  0  0
 30 31  2  0  0  0  0
 30 75  1  0  0  0  0
 31 32  1  0  0  0  0
 31 76  1  0  0  0  0
 32 33  1  0  0  0  0
 32 34  2  0  0  0  0
 34 35  1  0  0  0  0
 34 52  1  0  0  0  0
 35 36  1  0  0  0  0
 35 77  1  0  0  0  0
 36 37  2  0  0  0  0
 36 38  1  0  0  0  0
 38 39  2  0  0  0  0
 38 78  1  0  0  0  0
 39 40  1  0  0  0  0
 39 79  1  0  0  0  0
 40 41  1  0  0  0  0
 40 51  2  0  0  0  0
 41 42  2  0  0  0  0
 41 80  1  0  0  0  0
 42 43  1  0  0  0  0
 42 45  1  0  0  0  0
 43 44  1  0  0  0  0
 44 81  1  0  0  0  0
 44 82  1  0  0  0  0
 44 83  1  0  0  0  0
 45 46  1  0  0  0  0
 45 48  2  0  0  0  0
 46 47  1  0  0  0  0
 47 84  1  0  0  0  0
 47 85  1  0  0  0  0
 47 86  1  0  0  0  0
 48 49  1  0  0  0  0
 48 51  1  0  0  0  0
 49 50  1  0  0  0  0
 50 87  1  0  0  0  0
 50 88  1  0  0  0  0
 50 89  1  0  0  0  0
 51 90  1  0  0  0  0
 52 91  1  0  0  0  0
 53 92  1  0  0  0  0
 53 93  1  0  0  0  0
M  END
>  <Energy>
193.322

$$$$