137655428
  -OEChem-03242010103D

 55 58  0     0  0  0  0  0  0999 V2000
   -5.8953    1.0599    1.4850 O   0  0  0  0  0  0  0  0  0  0  0  0
    4.6243    0.0200    1.0893 O   0  0  0  0  0  0  0  0  0  0  0  0
   -4.0733   -0.5814    0.0400 N   0  0  0  0  0  0  0  0  0  0  0  0
    1.0849   -0.4454   -0.8195 N   0  0  0  0  0  0  0  0  0  0  0  0
   -2.5500   -1.2003   -1.7818 C   0  0  0  0  0  0  0  0  0  0  0  0
   -3.7610   -1.6137   -0.9462 C   0  0  0  0  0  0  0  0  0  0  0  0
   -1.3127   -1.0018   -0.8996 C   0  0  0  0  0  0  0  0  0  0  0  0
   -0.0720   -0.6191   -1.7022 C   0  0  0  0  0  0  0  0  0  0  0  0
   -4.7501    0.5585   -0.5941 C   0  0  0  0  0  0  0  0  0  0  0  0
   -4.9088   -1.1263    1.1191 C   0  0  0  0  0  0  0  0  0  0  0  0
    1.4977    0.8664   -0.4929 C   0  0  0  0  0  0  0  0  0  0  0  0
    1.7132   -1.5963   -0.2917 C   0  0  0  0  0  0  0  0  0  0  0  0
    2.7104    1.0602    0.1971 C   0  0  0  0  0  0  0  0  0  0  0  0
   -5.0760    1.6164    0.4563 C   0  0  0  0  0  0  0  0  0  0  0  0
   -5.2321   -0.0287    2.1288 C   0  0  0  0  0  0  0  0  0  0  0  0
    2.9313   -1.4646    0.4033 C   0  0  0  0  0  0  0  0  0  0  0  0
    0.7536    2.0191   -0.8043 C   0  0  0  0  0  0  0  0  0  0  0  0
    3.5125   -0.1175    0.5956 C   0  0  0  0  0  0  0  0  0  0  0  0
    3.1757    2.3408    0.5285 C   0  0  0  0  0  0  0  0  0  0  0  0
    1.1832   -2.8950   -0.4027 C   0  0  0  0  0  0  0  0  0  0  0  0
    1.2116    3.2989   -0.4719 C   0  0  0  0  0  0  0  0  0  0  0  0
    2.4237    3.4598    0.1884 C   0  0  0  0  0  0  0  0  0  0  0  0
    3.6057   -2.5754    0.9298 C   0  0  0  0  0  0  0  0  0  0  0  0
   -0.6177    1.9947   -1.4077 C   0  0  0  0  0  0  0  0  0  0  0  0
    1.8503   -4.0062    0.1250 C   0  0  0  0  0  0  0  0  0  0  0  0
    3.0626   -3.8472    0.7852 C   0  0  0  0  0  0  0  0  0  0  0  0
    2.9083    4.8243    0.5432 C   0  0  0  0  0  0  0  0  0  0  0  0
   -2.7498   -0.2964   -2.3664 H   0  0  0  0  0  0  0  0  0  0  0  0
   -2.3450   -1.9962   -2.5089 H   0  0  0  0  0  0  0  0  0  0  0  0
   -3.5105   -2.5566   -0.4423 H   0  0  0  0  0  0  0  0  0  0  0  0
   -4.6178   -1.8276   -1.5975 H   0  0  0  0  0  0  0  0  0  0  0  0
   -1.5055   -0.2867   -0.0957 H   0  0  0  0  0  0  0  0  0  0  0  0
   -1.1737   -1.9315   -0.3434 H   0  0  0  0  0  0  0  0  0  0  0  0
    0.1454   -1.4852   -2.3481 H   0  0  0  0  0  0  0  0  0  0  0  0
   -0.1900    0.1034   -2.5002 H   0  0  0  0  0  0  0  0  0  0  0  0
   -4.3836   -1.9371    1.6368 H   0  0  0  0  0  0  0  0  0  0  0  0
   -5.8422   -1.5324    0.7077 H   0  0  0  0  0  0  0  0  0  0  0  0
   -5.6800    0.2301   -1.0766 H   0  0  0  0  0  0  0  0  0  0  0  0
   -4.1202    1.0271   -1.3562 H   0  0  0  0  0  0  0  0  0  0  0  0
   -4.1663    2.0391    0.9003 H   0  0  0  0  0  0  0  0  0  0  0  0
   -4.3283    0.3384    2.6304 H   0  0  0  0  0  0  0  0  0  0  0  0
   -5.9040   -0.4181    2.9003 H   0  0  0  0  0  0  0  0  0  0  0  0
   -5.6330    2.4391   -0.0034 H   0  0  0  0  0  0  0  0  0  0  0  0
    4.1177    2.4685    1.0560 H   0  0  0  0  0  0  0  0  0  0  0  0
    0.2812   -3.1237   -0.9579 H   0  0  0  0  0  0  0  0  0  0  0  0
    0.6262    4.1828   -0.7165 H   0  0  0  0  0  0  0  0  0  0  0  0
    4.5478   -2.4661    1.4600 H   0  0  0  0  0  0  0  0  0  0  0  0
   -0.6146    1.8734   -2.4931 H   0  0  0  0  0  0  0  0  0  0  0  0
   -1.3522    1.4173   -0.8670 H   0  0  0  0  0  0  0  0  0  0  0  0
   -1.0609    2.9990   -1.3098 H   0  0  0  0  0  0  0  0  0  0  0  0
    1.4259   -4.9990    0.0036 H   0  0  0  0  0  0  0  0  0  0  0  0
    3.5808   -4.7111    1.1901 H   0  0  0  0  0  0  0  0  0  0  0  0
    3.4185    5.2761   -0.3133 H   0  0  0  0  0  0  0  0  0  0  0  0
    2.0753    5.4707    0.8397 H   0  0  0  0  0  0  0  0  0  0  0  0
    3.6062    4.7947    1.3870 H   0  0  0  0  0  0  0  0  0  0  0  0
  1 14  1  0  0  0  0
  1 15  1  0  0  0  0
  2 18  2  0  0  0  0
  3  6  1  0  0  0  0
  3  9  1  0  0  0  0
  3 10  1  0  0  0  0
  4  8  1  0  0  0  0
  4 11  1  0  0  0  0
  4 12  1  0  0  0  0
  5  6  1  0  0  0  0
  5  7  1  0  0  0  0
  5 28  1  0  0  0  0
  5 29  1  0  0  0  0
  6 30  1  0  0  0  0
  6 31  1  0  0  0  0
  7  8  1  0  0  0  0
  7 32  1  0  0  0  0
  7 33  1  0  0  0  0
  8 34  1  0  0  0  0
  8 35  1  0  0  0  0
  9 14  1  0  0  0  0
  9 38  1  0  0  0  0
  9 39  1  0  0  0  0
 10 15  1  0  0  0  0
 10 36  1  0  0  0  0
 10 37  1  0  0  0  0
 11 13  1  0  0  0  0
 11 17  2  0  0  0  0
 12 16  1  0  0  0  0
 12 20  2  0  0  0  0
 13 18  1  0  0  0  0
 13 19  2  0  0  0  0
 14 40  1  0  0  0  0
 14 43  1  0  0  0  0
 15 41  1  0  0  0  0
 15 42  1  0  0  0  0
 16 18  1  0  0  0  0
 16 23  2  0  0  0  0
 17 21  1  0  0  0  0
 17 24  1  0  0  0  0
 19 22  1  0  0  0  0
 19 44  1  0  0  0  0
 20 25  1  0  0  0  0
 20 45  1  0  0  0  0
 21 22  2  0  0  0  0
 21 46  1  0  0  0  0
 22 27  1  0  0  0  0
 23 26  1  0  0  0  0
 23 47  1  0  0  0  0
 24 48  1  0  0  0  0
 24 49  1  0  0  0  0
 24 50  1  0  0  0  0
 25 26  2  0  0  0  0
 25 51  1  0  0  0  0
 26 52  1  0  0  0  0
 27 53  1  0  0  0  0
 27 54  1  0  0  0  0
 27 55  1  0  0  0  0
M  END
> <PUBCHEM_COMPOUND_CID>
137655428

> <PUBCHEM_CONFORMER_RMSD>
0.8

> <PUBCHEM_CONFORMER_DIVERSEORDER>
1
10
6
11
3
7
12
8
14
5
9
4
16
15
2
13

> <PUBCHEM_MMFF94_PARTIAL_CHARGES>
31
1 -0.56
10 0.27
11 0.1
12 0.1
13 0.09
14 0.28
15 0.28
16 0.09
17 -0.14
18 0.4
19 -0.15
2 -0.57
20 -0.15
21 -0.15
22 -0.14
23 -0.15
24 0.14
25 -0.15
26 -0.15
27 0.14
3 -0.81
4 -0.57
44 0.15
45 0.15
46 0.15
47 0.15
51 0.15
52 0.15
6 0.27
8 0.37
9 0.27

> <PUBCHEM_EFFECTIVE_ROTOR_COUNT>
6.2

> <PUBCHEM_PHARMACOPHORE_FEATURES>
8
1 1 acceptor
1 2 acceptor
1 3 cation
1 4 cation
6 1 3 9 10 14 15 rings
6 11 13 17 19 21 22 rings
6 12 16 20 23 25 26 rings
6 4 11 12 13 16 18 rings

> <PUBCHEM_HEAVY_ATOM_COUNT>
27

> <PUBCHEM_ATOM_DEF_STEREO_COUNT>
0

> <PUBCHEM_ATOM_UDEF_STEREO_COUNT>
0

> <PUBCHEM_BOND_DEF_STEREO_COUNT>
0

> <PUBCHEM_BOND_UDEF_STEREO_COUNT>
0

> <PUBCHEM_ISOTOPIC_ATOM_COUNT>
0

> <PUBCHEM_COMPONENT_COUNT>
1

> <PUBCHEM_CACTVS_TAUTO_COUNT>
-1

> <PUBCHEM_CONFORMER_ID>
0834748400000001

> <PUBCHEM_MMFF94_ENERGY>
101.9816

> <PUBCHEM_FEATURE_SELFOVERLAP>
40.641

> <PUBCHEM_SHAPE_FINGERPRINT>
10074138 170 16966299221198747250
10906281 52 18196653124250309708
10928967 22 12974185037707473857
1100329 8 18049140449349247378
11049842 53 16773529797511873559
12107183 9 18197497321140603459
12390115 104 17543631285112542372
12422481 6 18270108011754243571
12553582 1 18266446629866496918
12633257 1 18115008797085762202
12788726 201 17831309298110090934
13140716 1 17902770184304960682
13583140 156 18335136471617772103
14790565 3 18192149511210841724
14849402 71 18265335182677429744
14950920 106 18265354884056173995
14955137 171 18411420575425679868
15081414 286 18412543180887105558
15420108 30 18131057255972782470
15475509 8 18129959948485843764
15475509 84 17977382742032210248
15950262 2 15768067242233626592
20642791 268 18201428181961794142
20715895 44 17985273967931063289
20739085 24 18188205523956887556
21796203 349 18334855005231100410
3117164 225 18339081480630713937
3178227 256 18334862753378436680
341906 21 16200423646758480163
3737641 26 18265051341078826158
38570 142 18053966205177357028
4015057 19 18049129247806112629
474 4 18340198717066488959
563151 40 17392486893763014916
633830 44 18129102405902377828
7097593 13 18410854348243712271
79837 15 17688588685766702288
86090 222 17240781549071116795

> <PUBCHEM_SHAPE_MULTIPOLES>
533.95
10.75
5.34
1.49
18.24
1.61
-0.06
0.6
-6.03
-7.94
-0.73
1.69
-0.14
-0.82

> <PUBCHEM_SHAPE_SELFOVERLAP>
1150.011

> <PUBCHEM_SHAPE_VOLUME>
293.8

> <PUBCHEM_COORDINATE_TYPE>
2
5
10

$$$$