137652146
  -OEChem-03242010103D

 56 58  0     0  0  0  0  0  0999 V2000
   -4.7875    0.8823    0.4041 O   0  0  0  0  0  0  0  0  0  0  0  0
   -0.9110    0.2789   -0.5935 N   0  0  0  0  0  0  0  0  0  0  0  0
    5.3117    0.1150   -0.1537 N   0  0  0  0  0  0  0  0  0  0  0  0
    0.4192    0.0668   -1.1711 C   0  0  0  0  0  0  0  0  0  0  0  0
    1.5053    0.2696   -0.1179 C   0  0  0  0  0  0  0  0  0  0  0  0
    2.9172    0.0635   -0.6771 C   0  0  0  0  0  0  0  0  0  0  0  0
   -1.7003   -0.8500   -0.2764 C   0  0  0  0  0  0  0  0  0  0  0  0
    3.9758    0.3069    0.3983 C   0  0  0  0  0  0  0  0  0  0  0  0
   -1.3331    1.6023   -0.3325 C   0  0  0  0  0  0  0  0  0  0  0  0
   -3.0450   -0.6715    0.1028 C   0  0  0  0  0  0  0  0  0  0  0  0
   -2.6686    1.8426    0.0453 C   0  0  0  0  0  0  0  0  0  0  0  0
   -1.2175   -2.1713   -0.2996 C   0  0  0  0  0  0  0  0  0  0  0  0
   -3.5955    0.6989    0.1936 C   0  0  0  0  0  0  0  0  0  0  0  0
   -3.8771   -1.7578    0.4089 C   0  0  0  0  0  0  0  0  0  0  0  0
    6.3075    0.8308    0.6458 C   0  0  0  0  0  0  0  0  0  0  0  0
    5.6424   -1.3096   -0.2196 C   0  0  0  0  0  0  0  0  0  0  0  0
   -0.4846    2.7220   -0.4113 C   0  0  0  0  0  0  0  0  0  0  0  0
   -2.0428   -3.2584    0.0094 C   0  0  0  0  0  0  0  0  0  0  0  0
   -3.3722   -3.0523    0.3574 C   0  0  0  0  0  0  0  0  0  0  0  0
   -3.1440    3.1376    0.2967 C   0  0  0  0  0  0  0  0  0  0  0  0
    0.2152   -2.5368   -0.5424 C   0  0  0  0  0  0  0  0  0  0  0  0
   -0.9532    4.0158   -0.1569 C   0  0  0  0  0  0  0  0  0  0  0  0
   -2.2823    4.2238    0.1909 C   0  0  0  0  0  0  0  0  0  0  0  0
    7.0056   -1.5280   -0.8540 C   0  0  0  0  0  0  0  0  0  0  0  0
    6.3632    0.2909    2.0649 C   0  0  0  0  0  0  0  0  0  0  0  0
   -4.2487   -4.2121    0.6880 C   0  0  0  0  0  0  0  0  0  0  0  0
    0.5743    0.8625   -1.9177 H   0  0  0  0  0  0  0  0  0  0  0  0
    0.5275   -0.7661   -1.8548 H   0  0  0  0  0  0  0  0  0  0  0  0
    1.3535   -0.3563    0.7664 H   0  0  0  0  0  0  0  0  0  0  0  0
    1.4820    1.2736    0.3110 H   0  0  0  0  0  0  0  0  0  0  0  0
    2.9821   -0.9547   -1.0746 H   0  0  0  0  0  0  0  0  0  0  0  0
    3.0791    0.7501   -1.5178 H   0  0  0  0  0  0  0  0  0  0  0  0
    3.7807   -0.3436    1.2604 H   0  0  0  0  0  0  0  0  0  0  0  0
    3.8506    1.3419    0.7438 H   0  0  0  0  0  0  0  0  0  0  0  0
   -4.9142   -1.5983    0.6935 H   0  0  0  0  0  0  0  0  0  0  0  0
    4.9243   -1.8165   -0.8743 H   0  0  0  0  0  0  0  0  0  0  0  0
    5.5780   -1.8294    0.7429 H   0  0  0  0  0  0  0  0  0  0  0  0
    7.3001    0.8087    0.1839 H   0  0  0  0  0  0  0  0  0  0  0  0
    6.0481    1.8971    0.6774 H   0  0  0  0  0  0  0  0  0  0  0  0
    0.5462    2.6650   -0.7407 H   0  0  0  0  0  0  0  0  0  0  0  0
   -1.6574   -4.2757   -0.0104 H   0  0  0  0  0  0  0  0  0  0  0  0
   -4.1771    3.3153    0.5824 H   0  0  0  0  0  0  0  0  0  0  0  0
    0.4841   -2.5681   -1.6003 H   0  0  0  0  0  0  0  0  0  0  0  0
    0.9302   -2.0682    0.1166 H   0  0  0  0  0  0  0  0  0  0  0  0
    0.3604   -3.5915   -0.2572 H   0  0  0  0  0  0  0  0  0  0  0  0
   -0.2783    4.8624   -0.2476 H   0  0  0  0  0  0  0  0  0  0  0  0
   -2.6450    5.2288    0.3836 H   0  0  0  0  0  0  0  0  0  0  0  0
    7.0544    0.9133    2.6463 H   0  0  0  0  0  0  0  0  0  0  0  0
    6.7566   -0.7275    2.1261 H   0  0  0  0  0  0  0  0  0  0  0  0
    7.1264   -2.5876   -1.1064 H   0  0  0  0  0  0  0  0  0  0  0  0
    7.8292   -1.2708   -0.1813 H   0  0  0  0  0  0  0  0  0  0  0  0
    5.4048    0.3357    2.5895 H   0  0  0  0  0  0  0  0  0  0  0  0
    7.1159   -0.9587   -1.7835 H   0  0  0  0  0  0  0  0  0  0  0  0
   -4.6550   -4.6493   -0.2295 H   0  0  0  0  0  0  0  0  0  0  0  0
   -3.6901   -4.9831    1.2296 H   0  0  0  0  0  0  0  0  0  0  0  0
   -5.0842   -3.9124    1.3297 H   0  0  0  0  0  0  0  0  0  0  0  0
  1 13  2  0  0  0  0
  2  4  1  0  0  0  0
  2  7  1  0  0  0  0
  2  9  1  0  0  0  0
  3  8  1  0  0  0  0
  3 15  1  0  0  0  0
  3 16  1  0  0  0  0
  4  5  1  0  0  0  0
  4 27  1  0  0  0  0
  4 28  1  0  0  0  0
  5  6  1  0  0  0  0
  5 29  1  0  0  0  0
  5 30  1  0  0  0  0
  6  8  1  0  0  0  0
  6 31  1  0  0  0  0
  6 32  1  0  0  0  0
  7 10  1  0  0  0  0
  7 12  2  0  0  0  0
  8 33  1  0  0  0  0
  8 34  1  0  0  0  0
  9 11  1  0  0  0  0
  9 17  2  0  0  0  0
 10 13  1  0  0  0  0
 10 14  2  0  0  0  0
 11 13  1  0  0  0  0
 11 20  2  0  0  0  0
 12 18  1  0  0  0  0
 12 21  1  0  0  0  0
 14 19  1  0  0  0  0
 14 35  1  0  0  0  0
 15 25  1  0  0  0  0
 15 38  1  0  0  0  0
 15 39  1  0  0  0  0
 16 24  1  0  0  0  0
 16 36  1  0  0  0  0
 16 37  1  0  0  0  0
 17 22  1  0  0  0  0
 17 40  1  0  0  0  0
 18 19  2  0  0  0  0
 18 41  1  0  0  0  0
 19 26  1  0  0  0  0
 20 23  1  0  0  0  0
 20 42  1  0  0  0  0
 21 43  1  0  0  0  0
 21 44  1  0  0  0  0
 21 45  1  0  0  0  0
 22 23  2  0  0  0  0
 22 46  1  0  0  0  0
 23 47  1  0  0  0  0
 24 50  1  0  0  0  0
 24 51  1  0  0  0  0
 24 53  1  0  0  0  0
 25 48  1  0  0  0  0
 25 49  1  0  0  0  0
 25 52  1  0  0  0  0
 26 54  1  0  0  0  0
 26 55  1  0  0  0  0
 26 56  1  0  0  0  0
M  END
> <PUBCHEM_COMPOUND_CID>
137652146

> <PUBCHEM_CONFORMER_RMSD>
0.8

> <PUBCHEM_CONFORMER_DIVERSEORDER>
1
14
15
16
11
2
18
17
8
3
7
12
13
4
10
9
5
19
6

> <PUBCHEM_MMFF94_PARTIAL_CHARGES>
28
1 -0.57
10 0.09
11 0.09
12 -0.14
13 0.4
14 -0.15
15 0.27
16 0.27
17 -0.15
18 -0.15
19 -0.14
2 -0.57
20 -0.15
21 0.14
22 -0.15
23 -0.15
26 0.14
3 -0.81
35 0.15
4 0.37
40 0.15
41 0.15
42 0.15
46 0.15
47 0.15
7 0.1
8 0.27
9 0.1

> <PUBCHEM_EFFECTIVE_ROTOR_COUNT>
7

> <PUBCHEM_PHARMACOPHORE_FEATURES>
6
1 1 acceptor
1 2 cation
1 3 cation
6 2 7 9 10 11 13 rings
6 7 10 12 14 18 19 rings
6 9 11 17 20 22 23 rings

> <PUBCHEM_HEAVY_ATOM_COUNT>
26

> <PUBCHEM_ATOM_DEF_STEREO_COUNT>
0

> <PUBCHEM_ATOM_UDEF_STEREO_COUNT>
0

> <PUBCHEM_BOND_DEF_STEREO_COUNT>
0

> <PUBCHEM_BOND_UDEF_STEREO_COUNT>
0

> <PUBCHEM_ISOTOPIC_ATOM_COUNT>
0

> <PUBCHEM_COMPONENT_COUNT>
1

> <PUBCHEM_CACTVS_TAUTO_COUNT>
-1

> <PUBCHEM_CONFORMER_ID>
083467B200000001

> <PUBCHEM_MMFF94_ENERGY>
99.5231

> <PUBCHEM_FEATURE_SELFOVERLAP>
30.491

> <PUBCHEM_SHAPE_FINGERPRINT>
10319926 262 18341040823653206690
10411042 1 18194405713334265503
1100329 8 18337679715122421537
11273773 46 17842007585815726462
12035758 1 18339942471534511249
12107183 9 17902785263940555194
12788726 201 18190197856517022766
12925494 130 18195804060180173250
13009979 54 18115039613444085783
13140716 1 18268440203756732497
138480 1 16175947091836223477
14420673 8 18266744576544090358
14713325 29 18411704261635633099
14790565 3 17473552347741746854
14844126 61 18336264634624506083
14866123 147 18410578349112758035
15042514 8 18409735092503316823
15230672 131 17904206928402497750
15250474 111 18187638052020088458
15326921 28 17830716678976509840
15927050 60 18196371408096099551
15950262 2 15409233689640951809
17780758 139 18334283293396383210
17844677 252 18411143533161355628
20600515 1 18342472447210450445
21033648 29 17703208656407378480
23522609 53 17750819683502383308
23559900 14 18339917220541238216
335352 9 18337392755683496887
3882209 13 16975301447183013750
4073 2 18411138001407054054
4409770 3 18261104146148842845
508706 21 18341615854769227254
5104073 3 18341604903151281258
5265222 85 18271535286461340318
5364581 5 18127391558011661800
9896288 288 18190471467345278897
9981440 41 18047477729638100177

> <PUBCHEM_SHAPE_MULTIPOLES>
519.24
13.56
5.22
0.99
32.35
1.37
0.26
-5.21
3.55
-8.85
0.41
1.29
-0.08
1.24

> <PUBCHEM_SHAPE_SELFOVERLAP>
1101.126

> <PUBCHEM_SHAPE_VOLUME>
292.6

> <PUBCHEM_COORDINATE_TYPE>
2
5
10

$$$$