137634390
  -OEChem-03242010103D

 63 66  0     1  0  0  0  0  0999 V2000
    2.6854    0.0477    0.4000 O   0  0  0  0  0  0  0  0  0  0  0  0
   -3.8935   -0.0934    0.9024 O   0  0  0  0  0  0  0  0  0  0  0  0
   -3.3126   -2.1478    1.7848 O   0  0  0  0  0  0  0  0  0  0  0  0
    3.2781   -1.8327   -0.8045 O   0  0  0  0  0  0  0  0  0  0  0  0
   -2.3959   -1.7088   -1.4728 N   0  0  2  0  0  0  0  0  0  0  0  0
    1.2487    2.3038    0.5030 N   0  0  0  0  0  0  0  0  0  0  0  0
   -0.6192   -1.8381    1.0138 C   0  0  1  0  0  0  0  0  0  0  0  0
   -1.6620   -0.7826    0.6656 C   0  0  1  0  0  0  0  0  0  0  0  0
   -0.6073   -2.9679   -0.0751 C   0  0  2  0  0  0  0  0  0  0  0  0
   -1.6036   -0.6286   -0.8730 C   0  0  2  0  0  0  0  0  0  0  0  0
   -1.9278   -3.0179   -0.9217 C   0  0  0  0  0  0  0  0  0  0  0  0
    0.7658   -1.1325    1.1959 C   0  0  0  0  0  0  0  0  0  0  0  0
   -1.7069    0.8463   -1.2515 C   0  0  0  0  0  0  0  0  0  0  0  0
    1.2991   -0.1801    0.0885 C   0  0  1  0  0  0  0  0  0  0  0  0
   -0.3356   -4.3325    0.5622 C   0  0  0  0  0  0  0  0  0  0  0  0
   -0.5741    1.6457   -0.6020 C   0  0  0  0  0  0  0  0  0  0  0  0
    0.6287    1.1907   -0.0264 C   0  0  0  0  0  0  0  0  0  0  0  0
   -3.0367   -1.1137    1.1918 C   0  0  0  0  0  0  0  0  0  0  0  0
   -2.3565   -1.6986   -2.9316 C   0  0  0  0  0  0  0  0  0  0  0  0
   -0.6123    3.0728   -0.4351 C   0  0  0  0  0  0  0  0  0  0  0  0
   -0.2811   -5.4270   -0.4843 C   0  0  0  0  0  0  0  0  0  0  0  0
    0.5361    3.4478    0.2547 C   0  0  0  0  0  0  0  0  0  0  0  0
   -1.5331    4.0783   -0.8018 C   0  0  0  0  0  0  0  0  0  0  0  0
    0.8204    4.7758    0.5935 C   0  0  0  0  0  0  0  0  0  0  0  0
    3.5509   -0.8616   -0.1168 C   0  0  0  0  0  0  0  0  0  0  0  0
   -1.2648    5.4116   -0.4721 C   0  0  0  0  0  0  0  0  0  0  0  0
   -5.2411   -0.2771    1.3478 C   0  0  0  0  0  0  0  0  0  0  0  0
   -0.1034    5.7532    0.2155 C   0  0  0  0  0  0  0  0  0  0  0  0
    4.9117   -0.4656    0.3056 C   0  0  0  0  0  0  0  0  0  0  0  0
    5.9683   -1.1982   -0.0697 C   0  0  0  0  0  0  0  0  0  0  0  0
    7.3740   -0.8689    0.3133 C   0  0  0  0  0  0  0  0  0  0  0  0
   -0.8571   -2.2891    1.9863 H   0  0  0  0  0  0  0  0  0  0  0  0
   -1.4149    0.1318    1.2177 H   0  0  0  0  0  0  0  0  0  0  0  0
    0.2184   -2.7746   -0.7739 H   0  0  0  0  0  0  0  0  0  0  0  0
   -0.6111   -0.8545   -1.2568 H   0  0  0  0  0  0  0  0  0  0  0  0
   -1.7943   -3.7235   -1.7502 H   0  0  0  0  0  0  0  0  0  0  0  0
   -2.7407   -3.4360   -0.3170 H   0  0  0  0  0  0  0  0  0  0  0  0
    1.5076   -1.9205    1.3818 H   0  0  0  0  0  0  0  0  0  0  0  0
    0.7303   -0.5625    2.1358 H   0  0  0  0  0  0  0  0  0  0  0  0
   -2.6769    1.2582   -0.9536 H   0  0  0  0  0  0  0  0  0  0  0  0
   -1.6180    0.9759   -2.3366 H   0  0  0  0  0  0  0  0  0  0  0  0
    1.2588   -0.6505   -0.8976 H   0  0  0  0  0  0  0  0  0  0  0  0
   -1.1067   -4.5764    1.3025 H   0  0  0  0  0  0  0  0  0  0  0  0
    0.6224   -4.3010    1.0948 H   0  0  0  0  0  0  0  0  0  0  0  0
   -2.7808   -0.7699   -3.3266 H   0  0  0  0  0  0  0  0  0  0  0  0
   -2.9721   -2.5096   -3.3371 H   0  0  0  0  0  0  0  0  0  0  0  0
   -1.3382   -1.8111   -3.3205 H   0  0  0  0  0  0  0  0  0  0  0  0
   -1.2717   -5.6673   -0.8814 H   0  0  0  0  0  0  0  0  0  0  0  0
    0.1073   -6.3470   -0.0339 H   0  0  0  0  0  0  0  0  0  0  0  0
    0.3803   -5.1610   -1.3151 H   0  0  0  0  0  0  0  0  0  0  0  0
    2.1352    2.2788    0.9870 H   0  0  0  0  0  0  0  0  0  0  0  0
   -2.4445    3.8289   -1.3379 H   0  0  0  0  0  0  0  0  0  0  0  0
    1.7240    5.0411    1.1322 H   0  0  0  0  0  0  0  0  0  0  0  0
   -1.9717    6.1867   -0.7556 H   0  0  0  0  0  0  0  0  0  0  0  0
   -5.8187    0.6035    1.0550 H   0  0  0  0  0  0  0  0  0  0  0  0
   -5.2703   -0.3704    2.4376 H   0  0  0  0  0  0  0  0  0  0  0  0
   -5.6796   -1.1593    0.8718 H   0  0  0  0  0  0  0  0  0  0  0  0
    0.0877    6.7940    0.4637 H   0  0  0  0  0  0  0  0  0  0  0  0
    5.0283    0.4216    0.9190 H   0  0  0  0  0  0  0  0  0  0  0  0
    5.8365   -2.0847   -0.6843 H   0  0  0  0  0  0  0  0  0  0  0  0
    7.9771   -0.7091   -0.5856 H   0  0  0  0  0  0  0  0  0  0  0  0
    7.8103   -1.6989    0.8774 H   0  0  0  0  0  0  0  0  0  0  0  0
    7.4359    0.0330    0.9306 H   0  0  0  0  0  0  0  0  0  0  0  0
  1 14  1  0  0  0  0
  1 25  1  0  0  0  0
  2 18  1  0  0  0  0
  2 27  1  0  0  0  0
  3 18  2  0  0  0  0
  4 25  2  0  0  0  0
  5 10  1  0  0  0  0
  5 11  1  0  0  0  0
  5 19  1  0  0  0  0
  6 17  1  0  0  0  0
  6 22  1  0  0  0  0
  6 51  1  0  0  0  0
  7  8  1  0  0  0  0
  7  9  1  0  0  0  0
  7 12  1  0  0  0  0
  7 32  1  0  0  0  0
  8 10  1  0  0  0  0
  8 18  1  0  0  0  0
  8 33  1  0  0  0  0
  9 11  1  0  0  0  0
  9 15  1  0  0  0  0
  9 34  1  0  0  0  0
 10 13  1  0  0  0  0
 10 35  1  0  0  0  0
 11 36  1  0  0  0  0
 11 37  1  0  0  0  0
 12 14  1  0  0  0  0
 12 38  1  0  0  0  0
 12 39  1  0  0  0  0
 13 16  1  0  0  0  0
 13 40  1  0  0  0  0
 13 41  1  0  0  0  0
 14 17  1  0  0  0  0
 14 42  1  0  0  0  0
 15 21  1  0  0  0  0
 15 43  1  0  0  0  0
 15 44  1  0  0  0  0
 16 17  2  0  0  0  0
 16 20  1  0  0  0  0
 19 45  1  0  0  0  0
 19 46  1  0  0  0  0
 19 47  1  0  0  0  0
 20 22  1  0  0  0  0
 20 23  2  0  0  0  0
 21 48  1  0  0  0  0
 21 49  1  0  0  0  0
 21 50  1  0  0  0  0
 22 24  2  0  0  0  0
 23 26  1  0  0  0  0
 23 52  1  0  0  0  0
 24 28  1  0  0  0  0
 24 53  1  0  0  0  0
 25 29  1  0  0  0  0
 26 28  2  0  0  0  0
 26 54  1  0  0  0  0
 27 55  1  0  0  0  0
 27 56  1  0  0  0  0
 27 57  1  0  0  0  0
 28 58  1  0  0  0  0
 29 30  2  0  0  0  0
 29 59  1  0  0  0  0
 30 31  1  0  0  0  0
 30 60  1  0  0  0  0
 31 61  1  0  0  0  0
 31 62  1  0  0  0  0
 31 63  1  0  0  0  0
M  END
> <PUBCHEM_COMPOUND_CID>
137634390

> <PUBCHEM_CONFORMER_RMSD>
1

> <PUBCHEM_CONFORMER_DIVERSEORDER>
1
7
4
9
10
2
5
8
6
3

> <PUBCHEM_MMFF94_PARTIAL_CHARGES>
32
1 -0.43
10 0.27
11 0.27
13 0.18
14 0.46
16 -0.18
17 -0.33
18 0.66
19 0.27
2 -0.43
22 -0.15
23 -0.15
24 -0.15
25 0.71
26 -0.15
27 0.28
28 -0.15
29 -0.14
3 -0.57
30 -0.29
31 0.14
4 -0.57
5 -0.81
51 0.27
52 0.15
53 0.15
54 0.15
58 0.15
59 0.15
6 0.03
60 0.15
8 0.06

> <PUBCHEM_EFFECTIVE_ROTOR_COUNT>
7.4

> <PUBCHEM_PHARMACOPHORE_FEATURES>
10
1 21 hydrophobe
1 3 acceptor
1 31 hydrophobe
1 4 acceptor
1 5 cation
1 6 cation
1 6 donor
5 6 16 17 20 22 rings
6 20 22 23 24 26 28 rings
6 5 7 8 9 10 11 rings

> <PUBCHEM_HEAVY_ATOM_COUNT>
31

> <PUBCHEM_ATOM_DEF_STEREO_COUNT>
5

> <PUBCHEM_ATOM_UDEF_STEREO_COUNT>
0

> <PUBCHEM_BOND_DEF_STEREO_COUNT>
1

> <PUBCHEM_BOND_UDEF_STEREO_COUNT>
0

> <PUBCHEM_ISOTOPIC_ATOM_COUNT>
0

> <PUBCHEM_COMPONENT_COUNT>
1

> <PUBCHEM_CACTVS_TAUTO_COUNT>
-1

> <PUBCHEM_CONFORMER_ID>
0834225600000001

> <PUBCHEM_MMFF94_ENERGY>
97.445

> <PUBCHEM_FEATURE_SELFOVERLAP>
50.833

> <PUBCHEM_SHAPE_FINGERPRINT>
10006869 2 17976533919472357281
12156800 1 17759279247702162077
12160290 23 17901074483365561916
12553582 1 18337379522382888026
12788726 201 18264197033391516240
13140716 1 18409453557112773169
14659021 117 18268409344453432650
14713325 29 18119254960715376282
14955137 171 18335714878768277043
15463212 79 18048024174306216716
15684970 41 17900250099327749962
15775530 1 17986362591674300008
15927050 60 17763180237431600549
20101258 96 18412542115914843384
20600515 1 18129401382770754681
20775438 99 17187801816824350110
21796203 349 17901989448932892730
23559900 14 17545865487991190640
23566358 27 17689447399990237635
23929065 36 18196623282769766016
283562 15 18263643961472530992
4409770 3 18262794064822739604
57527585 103 16883000692435281034
9896288 288 18124318195040773536
9981440 41 18049433743764785746

> <PUBCHEM_SHAPE_MULTIPOLES>
604.53
8.35
8.04
1.48
19.51
5.3
-0.6
1.13
1.49
-6.1
-0.27
-1.54
-1.33
0.93

> <PUBCHEM_SHAPE_SELFOVERLAP>
1286.598

> <PUBCHEM_SHAPE_VOLUME>
330.8

> <PUBCHEM_COORDINATE_TYPE>
2
5
10

$$$$