127042304
  -OEChem-03242010103D

 58 61  0     0  0  0  0  0  0999 V2000
    2.8009    0.7677    0.2325 O   0  0  0  0  0  0  0  0  0  0  0  0
    4.0197   -3.1002   -0.1072 O   0  0  0  0  0  0  0  0  0  0  0  0
    6.5173   -2.2742   -0.4225 O   0  0  0  0  0  0  0  0  0  0  0  0
    7.2161    2.4224   -0.3203 O   0  0  0  0  0  0  0  0  0  0  0  0
   -8.7399   -1.0053   -0.9819 O   0  0  0  0  0  0  0  0  0  0  0  0
   -8.7190   -0.9218    1.3185 O   0  0  0  0  0  0  0  0  0  0  0  0
   -2.0215    1.1772    0.2668 N   0  0  0  0  0  0  0  0  0  0  0  0
    0.6012    0.0893    0.5146 N   0  0  0  0  0  0  0  0  0  0  0  0
   -1.6185    0.0064   -0.5260 C   0  0  0  0  0  0  0  0  0  0  0  0
   -0.8665    2.0549    0.5048 C   0  0  0  0  0  0  0  0  0  0  0  0
   -0.5234   -0.7870    0.1896 C   0  0  0  0  0  0  0  0  0  0  0  0
    0.2451    1.3064    1.2430 C   0  0  0  0  0  0  0  0  0  0  0  0
   -3.0931    1.9095   -0.4071 C   0  0  0  0  0  0  0  0  0  0  0  0
    1.8978   -0.2861    0.3149 C   0  0  0  0  0  0  0  0  0  0  0  0
   -4.4265    1.2304   -0.2413 C   0  0  0  0  0  0  0  0  0  0  0  0
    2.2660   -1.5736    0.2071 C   0  0  0  0  0  0  0  0  0  0  0  0
    4.1296    0.4920    0.0331 C   0  0  0  0  0  0  0  0  0  0  0  0
    4.6235   -0.8044   -0.0923 C   0  0  0  0  0  0  0  0  0  0  0  0
   -5.1476    0.8249   -1.3644 C   0  0  0  0  0  0  0  0  0  0  0  0
   -4.9407    1.0066    1.0360 C   0  0  0  0  0  0  0  0  0  0  0  0
    3.6818   -1.9289   -0.0084 C   0  0  0  0  0  0  0  0  0  0  0  0
   -6.3828    0.1958   -1.2103 C   0  0  0  0  0  0  0  0  0  0  0  0
   -6.1760    0.3774    1.1899 C   0  0  0  0  0  0  0  0  0  0  0  0
    5.9878   -1.0258   -0.2942 C   0  0  0  0  0  0  0  0  0  0  0  0
    5.0007    1.5792   -0.0433 C   0  0  0  0  0  0  0  0  0  0  0  0
   -6.8972   -0.0279    0.0669 C   0  0  0  0  0  0  0  0  0  0  0  0
    6.3643    1.3633   -0.2451 C   0  0  0  0  0  0  0  0  0  0  0  0
    6.8567    0.0634   -0.3700 C   0  0  0  0  0  0  0  0  0  0  0  0
   -8.1856   -0.6831    0.2269 C   0  0  0  0  0  0  0  0  0  0  0  0
    6.9466   -2.9221    0.7736 C   0  0  0  0  0  0  0  0  0  0  0  0
    8.5974    2.1308   -0.5278 C   0  0  0  0  0  0  0  0  0  0  0  0
  -10.0142   -1.6572   -0.9559 C   0  0  0  0  0  0  0  0  0  0  0  0
   -1.1665    2.9117    1.1202 H   0  0  0  0  0  0  0  0  0  0  0  0
   -2.4690   -0.6669   -0.6839 H   0  0  0  0  0  0  0  0  0  0  0  0
   -1.2568    0.3152   -1.5163 H   0  0  0  0  0  0  0  0  0  0  0  0
   -0.4790    2.4496   -0.4441 H   0  0  0  0  0  0  0  0  0  0  0  0
    1.0960    1.9846    1.3736 H   0  0  0  0  0  0  0  0  0  0  0  0
   -0.0921    1.0312    2.2507 H   0  0  0  0  0  0  0  0  0  0  0  0
   -0.9145   -1.2358    1.1113 H   0  0  0  0  0  0  0  0  0  0  0  0
   -0.2425   -1.6064   -0.4814 H   0  0  0  0  0  0  0  0  0  0  0  0
   -2.8581    2.0805   -1.4662 H   0  0  0  0  0  0  0  0  0  0  0  0
   -3.2082    2.9091    0.0353 H   0  0  0  0  0  0  0  0  0  0  0  0
    1.5789   -2.4069    0.2960 H   0  0  0  0  0  0  0  0  0  0  0  0
   -4.7581    0.9920   -2.3651 H   0  0  0  0  0  0  0  0  0  0  0  0
   -4.3931    1.3219    1.9203 H   0  0  0  0  0  0  0  0  0  0  0  0
   -6.9084   -0.1026   -2.1130 H   0  0  0  0  0  0  0  0  0  0  0  0
   -6.5591    0.2138    2.1938 H   0  0  0  0  0  0  0  0  0  0  0  0
    4.6200    2.5928    0.0540 H   0  0  0  0  0  0  0  0  0  0  0  0
    7.9061   -0.1630   -0.5293 H   0  0  0  0  0  0  0  0  0  0  0  0
    7.1520   -3.9705    0.5408 H   0  0  0  0  0  0  0  0  0  0  0  0
    6.1775   -2.8794    1.5515 H   0  0  0  0  0  0  0  0  0  0  0  0
    7.8681   -2.4578    1.1385 H   0  0  0  0  0  0  0  0  0  0  0  0
    9.1278    3.0882   -0.5613 H   0  0  0  0  0  0  0  0  0  0  0  0
    8.7648    1.6395   -1.4923 H   0  0  0  0  0  0  0  0  0  0  0  0
    9.0189    1.5619    0.3079 H   0  0  0  0  0  0  0  0  0  0  0  0
  -10.3208   -1.8468   -1.9879 H   0  0  0  0  0  0  0  0  0  0  0  0
  -10.7582   -1.0117   -0.4798 H   0  0  0  0  0  0  0  0  0  0  0  0
   -9.9379   -2.6130   -0.4292 H   0  0  0  0  0  0  0  0  0  0  0  0
  1 14  1  0  0  0  0
  1 17  1  0  0  0  0
  2 21  2  0  0  0  0
  3 24  1  0  0  0  0
  3 30  1  0  0  0  0
  4 27  1  0  0  0  0
  4 31  1  0  0  0  0
  5 29  1  0  0  0  0
  5 32  1  0  0  0  0
  6 29  2  0  0  0  0
  7  9  1  0  0  0  0
  7 10  1  0  0  0  0
  7 13  1  0  0  0  0
  8 11  1  0  0  0  0
  8 12  1  0  0  0  0
  8 14  1  0  0  0  0
  9 11  1  0  0  0  0
  9 34  1  0  0  0  0
  9 35  1  0  0  0  0
 10 12  1  0  0  0  0
 10 33  1  0  0  0  0
 10 36  1  0  0  0  0
 11 39  1  0  0  0  0
 11 40  1  0  0  0  0
 12 37  1  0  0  0  0
 12 38  1  0  0  0  0
 13 15  1  0  0  0  0
 13 41  1  0  0  0  0
 13 42  1  0  0  0  0
 14 16  2  0  0  0  0
 15 19  2  0  0  0  0
 15 20  1  0  0  0  0
 16 21  1  0  0  0  0
 16 43  1  0  0  0  0
 17 18  2  0  0  0  0
 17 25  1  0  0  0  0
 18 21  1  0  0  0  0
 18 24  1  0  0  0  0
 19 22  1  0  0  0  0
 19 44  1  0  0  0  0
 20 23  2  0  0  0  0
 20 45  1  0  0  0  0
 22 26  2  0  0  0  0
 22 46  1  0  0  0  0
 23 26  1  0  0  0  0
 23 47  1  0  0  0  0
 24 28  2  0  0  0  0
 25 27  2  0  0  0  0
 25 48  1  0  0  0  0
 26 29  1  0  0  0  0
 27 28  1  0  0  0  0
 28 49  1  0  0  0  0
 30 50  1  0  0  0  0
 30 51  1  0  0  0  0
 30 52  1  0  0  0  0
 31 53  1  0  0  0  0
 31 54  1  0  0  0  0
 31 55  1  0  0  0  0
 32 56  1  0  0  0  0
 32 57  1  0  0  0  0
 32 58  1  0  0  0  0
M  END
> <PUBCHEM_COMPOUND_CID>
127042304

> <PUBCHEM_CONFORMER_RMSD>
1

> <PUBCHEM_CONFORMER_DIVERSEORDER>
2
28
31
4
41
9
30
32
40
37
43
11
1
20
29
14
38
34
24
39
18
26
7
35
36
22
17
16
6
23
42
25
21
44
33
15
3
10
19
13
27
12
5
8

> <PUBCHEM_MMFF94_PARTIAL_CHARGES>
39
1 -0.16
10 0.27
11 0.37
12 0.37
13 0.41
14 0.18
15 -0.14
16 -0.14
17 0.08
18 0.09
19 -0.15
2 -0.57
20 -0.15
21 0.47
22 -0.15
23 -0.15
24 0.08
25 -0.15
26 0.09
27 0.08
28 -0.15
29 0.63
3 -0.36
30 0.28
31 0.28
32 0.28
4 -0.36
43 0.15
44 0.15
45 0.15
46 0.15
47 0.15
48 0.15
49 0.15
5 -0.43
6 -0.57
7 -0.81
8 -0.84
9 0.27

> <PUBCHEM_EFFECTIVE_ROTOR_COUNT>
8.2

> <PUBCHEM_PHARMACOPHORE_FEATURES>
11
1 1 acceptor
1 2 acceptor
1 3 acceptor
1 4 acceptor
1 6 acceptor
1 7 cation
1 8 cation
6 1 14 16 17 18 21 rings
6 15 19 20 22 23 26 rings
6 17 18 24 25 27 28 rings
6 7 8 9 10 11 12 rings

> <PUBCHEM_HEAVY_ATOM_COUNT>
32

> <PUBCHEM_ATOM_DEF_STEREO_COUNT>
0

> <PUBCHEM_ATOM_UDEF_STEREO_COUNT>
0

> <PUBCHEM_BOND_DEF_STEREO_COUNT>
0

> <PUBCHEM_BOND_UDEF_STEREO_COUNT>
0

> <PUBCHEM_ISOTOPIC_ATOM_COUNT>
0

> <PUBCHEM_COMPONENT_COUNT>
1

> <PUBCHEM_CACTVS_TAUTO_COUNT>
1

> <PUBCHEM_CONFORMER_ID>
0792830000000002

> <PUBCHEM_MMFF94_ENERGY>
115.7738

> <PUBCHEM_FEATURE_SELFOVERLAP>
55.863

> <PUBCHEM_SHAPE_FINGERPRINT>
10 15 17821447989158626128
10299344 5 18060420214289124585
10391435 84 17968098672533429067
10595046 47 18341896238745545344
10674148 151 14333411147148563534
10677351 14 18335422327223728461
10677351 27 17489584554519804287
12013929 94 18271246131882578687
12082328 90 18336261263618510581
12089408 11 18059857255925084377
12166972 35 18335143059945227292
13782708 43 17823981130367335362
14117953 113 11314303932864585640
14142895 15 18336549416657300300
14251764 18 17917993884710914047
14347424 109 8718824280795744694
14856354 85 16773794818933057293
150020 25 17894628145776248501
15142383 8 9943802283928583146
15183329 4 17561360669143686925
15347591 1 18192992625722000953
15352257 5 18412825789930484499
15444296 7 18187931732660235015
15461852 350 13623538961409163001
15510794 2 17967531268171082233
1577012 14 18272377425640974672
18335252 98 18408325496831501689
18608769 82 18336265733903771651
20105231 36 14549023190959004149
20157964 124 18408887326821806028
21049683 271 18342457070985191025
21150785 3 18272652367739851401
21267235 1 18272371936313378748
21315763 28 18337390435846878930
21403212 168 10953732313833028640
21781055 127 14332585470040971697
22149856 69 17203055066831892635
23389318 12 18411415138028627959
23424782 7 18259706700807255579
23522609 53 17845676783969653680
23569917 315 18128257784238531446
24771750 20 17825963799004240108
34797466 226 18060144219875508372
3552219 110 17704080585717737489
4073 2 18259990391718709242
4093350 32 14548726340653293712
4149490 64 18333448738639351186
4325135 7 18408604781612508709
44880568 143 17385724656406834253
4625314 4 18333729139942328493
5470011 282 18335698338864947125
58083652 198 17202748359682233497
6057620 51 18342460352350150577
6394761 36 10447932771468048641
9831232 110 17630055853929867854
9962374 69 17346305056222904925
999808 66 18409173217088454107

> <PUBCHEM_SHAPE_MULTIPOLES>
613.37
30.99
2.61
1.02
33.75
0.93
0.04
6.97
-4.78
-5.36
0.01
1.67
-0.06
-1.17

> <PUBCHEM_SHAPE_SELFOVERLAP>
1325.867

> <PUBCHEM_SHAPE_VOLUME>
338.4

> <PUBCHEM_COORDINATE_TYPE>
2
5
10

$$$$