20
 OpenBabel03292021423D

 59 62  0  0  1  0  0  0  0  0999 V2000
    1.4831   -1.1387   -0.2653 C   0  0  0  0  0  0  0  0  0  0  0  0
    2.6038   -1.4229    0.7269 C   0  0  0  0  0  0  0  0  0  0  0  0
    3.9396   -0.8208    0.2871 C   0  0  2  0  0  0  0  0  0  0  0  0
    4.5097   -1.3880   -1.1406 C   0  0  0  0  0  0  0  0  0  0  0  0
    5.8703   -2.0583   -1.2686 N   0  0  0  0  0  0  0  0  0  0  0  0
    5.7654   -3.4271   -1.7978 C   0  0  0  0  0  0  0  0  0  0  0  0
    6.7187   -2.0384   -0.0264 C   0  0  1  0  0  0  0  0  0  0  0  0
    7.6008   -0.6991   -0.1566 C   0  0  0  0  0  0  0  0  0  0  0  0
    7.7142    0.4479    0.8611 C   0  0  0  0  0  0  0  0  0  0  0  0
    7.4560    0.4841    2.2292 C   0  0  0  0  0  0  0  0  0  0  0  0
    7.8474    1.7052    2.7147 N   0  0  0  0  0  0  0  0  0  0  0  0
    7.9524    2.5949    1.6786 C   0  0  0  0  0  0  0  0  0  0  0  0
    8.0588    3.9916    1.7065 C   0  0  0  0  0  0  0  0  0  0  0  0
    8.0537    4.6626    0.4833 C   0  0  0  0  0  0  0  0  0  0  0  0
    7.9910    3.9563   -0.7144 C   0  0  0  0  0  0  0  0  0  0  0  0
    7.9389    2.5533   -0.7209 C   0  0  0  0  0  0  0  0  0  0  0  0
    7.8960    1.8472    0.5023 C   0  0  0  0  0  0  0  0  0  0  0  0
    6.7635   -0.4775    3.0508 C   0  0  0  0  0  0  0  0  0  0  0  0
    7.5547   -1.2208    3.7585 N   0  0  0  0  0  0  0  0  0  0  0  0
    7.0896   -2.2384    4.5281 N   0  0  0  0  0  0  0  0  0  0  0  0
    7.8838   -3.3468    4.7486 C   0  0  0  0  0  0  0  0  0  0  0  0
    9.1512   -3.2320    4.2665 N   0  0  0  0  0  0  0  0  0  0  0  0
    7.4810   -4.3836    5.2617 O   0  0  0  0  0  0  0  0  0  0  0  0
    5.2188   -0.5344    2.8092 C   0  0  0  0  0  0  0  0  0  0  0  0
    5.0380   -0.9728    1.3476 C   0  0  1  0  0  0  0  0  0  0  0  0
    5.7007   -2.3065    1.0736 C   0  0  2  0  0  0  0  0  0  0  0  0
    5.7694   -3.4111    2.1193 C   0  0  0  0  0  0  0  0  0  0  0  0
    5.1881   -3.3621    3.1923 O   0  0  0  0  0  0  0  0  0  0  0  0
    6.1994   -4.5802    1.5468 O   0  0  0  0  0  0  0  0  0  0  0  0
    5.5877   -5.7428    2.1310 C   0  0  0  0  0  0  0  0  0  0  0  0
    0.5176   -1.4181    0.1670 H   0  0  0  0  0  0  0  0  0  0  0  0
    1.6095   -1.7121   -1.1873 H   0  0  0  0  0  0  0  0  0  0  0  0
    1.4444   -0.0760   -0.5253 H   0  0  0  0  0  0  0  0  0  0  0  0
    2.6859   -2.5044    0.8800 H   0  0  0  0  0  0  0  0  0  0  0  0
    2.3254   -0.9840    1.6941 H   0  0  0  0  0  0  0  0  0  0  0  0
    3.7670    0.2550    0.1338 H   0  0  0  0  0  0  0  0  0  0  0  0
    4.5563   -0.5254   -1.8158 H   0  0  0  0  0  0  0  0  0  0  0  0
    3.7539   -2.0510   -1.5760 H   0  0  0  0  0  0  0  0  0  0  0  0
    5.5694   -3.4026   -2.8741 H   0  0  0  0  0  0  0  0  0  0  0  0
    4.9782   -4.0137   -1.3104 H   0  0  0  0  0  0  0  0  0  0  0  0
    6.7033   -3.9866   -1.6730 H   0  0  0  0  0  0  0  0  0  0  0  0
    7.4577   -2.8504   -0.0421 H   0  0  0  0  0  0  0  0  0  0  0  0
    7.2801   -0.2044   -1.0866 H   0  0  0  0  0  0  0  0  0  0  0  0
    8.6300   -1.0133   -0.3800 H   0  0  0  0  0  0  0  0  0  0  0  0
    7.8313    1.9665    3.6912 H   0  0  0  0  0  0  0  0  0  0  0  0
    8.0962    4.5413    2.6418 H   0  0  0  0  0  0  0  0  0  0  0  0
    8.0841    5.7501    0.4696 H   0  0  0  0  0  0  0  0  0  0  0  0
    7.9631    4.4995   -1.6561 H   0  0  0  0  0  0  0  0  0  0  0  0
    7.8638    2.0269   -1.6676 H   0  0  0  0  0  0  0  0  0  0  0  0
    6.0903   -2.4248    4.6013 H   0  0  0  0  0  0  0  0  0  0  0  0
    9.2800   -2.4847    3.5967 H   0  0  0  0  0  0  0  0  0  0  0  0
    9.6787   -4.0852    4.1621 H   0  0  0  0  0  0  0  0  0  0  0  0
    4.8266    0.4832    2.9323 H   0  0  0  0  0  0  0  0  0  0  0  0
    4.7003   -1.1545    3.5384 H   0  0  0  0  0  0  0  0  0  0  0  0
    5.6039   -0.1750    0.8874 H   0  0  0  0  0  0  0  0  0  0  0  0
    4.8933   -2.8800    0.5852 H   0  0  0  0  0  0  0  0  0  0  0  0
    5.5484   -6.5181    1.3627 H   0  0  0  0  0  0  0  0  0  0  0  0
    4.5515   -5.5482    2.4390 H   0  0  0  0  0  0  0  0  0  0  0  0
    6.1789   -6.0931    2.9762 H   0  0  0  0  0  0  0  0  0  0  0  0
  1  2  1  0  0  0  0
  1 31  1  0  0  0  0
  1 32  1  0  0  0  0
  1 33  1  0  0  0  0
  2 34  1  0  0  0  0
  2 35  1  0  0  0  0
  3  4  1  0  0  0  0
  3 25  1  0  0  0  0
  3  2  1  0  0  0  0
  3 36  1  6  0  0  0
  4  5  1  0  0  0  0
  4 37  1  0  0  0  0
  4 38  1  0  0  0  0
  5  6  1  0  0  0  0
  5  7  1  0  0  0  0
  6 39  1  0  0  0  0
  6 40  1  0  0  0  0
  6 41  1  0  0  0  0
  7  8  1  0  0  0  0
  7 26  1  0  0  0  0
  7 42  1  6  0  0  0
  8  9  1  0  0  0  0
  8 43  1  0  0  0  0
  8 44  1  0  0  0  0
  9 10  2  0  0  0  0
  9 17  1  0  0  0  0
 10 11  1  0  0  0  0
 10 18  1  0  0  0  0
 11 12  1  0  0  0  0
 11 45  1  0  0  0  0
 12 13  1  0  0  0  0
 12 17  2  0  0  0  0
 13 14  2  0  0  0  0
 13 46  1  0  0  0  0
 14 15  1  0  0  0  0
 14 47  1  0  0  0  0
 15 16  2  0  0  0  0
 15 48  1  0  0  0  0
 16 17  1  0  0  0  0
 16 49  1  0  0  0  0
 18 19  2  0  0  0  0
 18 24  1  0  0  0  0
 19 20  1  0  0  0  0
 20 21  1  0  0  0  0
 20 50  1  0  0  0  0
 21 22  1  0  0  0  0
 21 23  2  0  0  0  0
 22 51  1  0  0  0  0
 22 52  1  0  0  0  0
 24 25  1  0  0  0  0
 24 53  1  0  0  0  0
 24 54  1  0  0  0  0
 25 26  1  0  0  0  0
 25 55  1  6  0  0  0
 26 27  1  0  0  0  0
 26 56  1  6  0  0  0
 27 28  2  0  0  0  0
 27 29  1  0  0  0  0
 29 30  1  0  0  0  0
 30 57  1  0  0  0  0
 30 58  1  0  0  0  0
 30 59  1  0  0  0  0
M  END
>  <Energy>
128.727

$$$$