134141004
  -OEChem-03242010103D

 42 44  0     0  0  0  0  0  0999 V2000
    6.6077    1.9717    0.2972 I   0  0  0  0  0  0  0  0  0  0  0  0
    3.6118   -2.5483   -0.2785 O   0  0  0  0  0  0  0  0  0  0  0  0
    5.9911   -1.2166    0.0599 O   0  0  0  0  0  0  0  0  0  0  0  0
   -1.2013    3.1583   -0.5920 O   0  0  0  0  0  0  0  0  0  0  0  0
   -3.9970   -0.6378   -0.1350 C   0  0  0  0  0  0  0  0  0  0  0  0
   -5.0799    0.1274    0.3598 C   0  0  0  0  0  0  0  0  0  0  0  0
   -2.5793    1.3374   -0.0534 C   0  0  0  0  0  0  0  0  0  0  0  0
   -2.7531   -0.0177   -0.3361 C   0  0  0  0  0  0  0  0  0  0  0  0
   -4.8870    1.4902    0.6389 C   0  0  0  0  0  0  0  0  0  0  0  0
   -3.6442    2.0900    0.4331 C   0  0  0  0  0  0  0  0  0  0  0  0
   -4.1901   -2.0006   -0.4142 C   0  0  0  0  0  0  0  0  0  0  0  0
   -6.3239   -0.4927    0.5607 C   0  0  0  0  0  0  0  0  0  0  0  0
    2.4346    0.9108   -0.2312 C   0  0  0  0  0  0  0  0  0  0  0  0
   -1.2845    1.9640   -0.2680 C   0  0  0  0  0  0  0  0  0  0  0  0
    2.4321   -0.4821   -0.3036 C   0  0  0  0  0  0  0  0  0  0  0  0
    3.6312   -1.1879   -0.2052 C   0  0  0  0  0  0  0  0  0  0  0  0
    1.1673    1.6550   -0.3363 C   0  0  0  0  0  0  0  0  0  0  0  0
   -5.4329   -2.6002   -0.2086 C   0  0  0  0  0  0  0  0  0  0  0  0
   -6.4977   -1.8478    0.2779 C   0  0  0  0  0  0  0  0  0  0  0  0
   -0.0459    1.1254   -0.1203 C   0  0  0  0  0  0  0  0  0  0  0  0
    3.6364    1.5981   -0.0605 C   0  0  0  0  0  0  0  0  0  0  0  0
    4.8330   -0.5006   -0.0345 C   0  0  0  0  0  0  0  0  0  0  0  0
    4.8355    0.8924    0.0379 C   0  0  0  0  0  0  0  0  0  0  0  0
    2.3399   -3.1693   -0.4537 C   0  0  0  0  0  0  0  0  0  0  0  0
    6.3962   -1.6192    1.3657 C   0  0  0  0  0  0  0  0  0  0  0  0
   -1.9445   -0.6147   -0.7520 H   0  0  0  0  0  0  0  0  0  0  0  0
   -5.7051    2.0973    1.0208 H   0  0  0  0  0  0  0  0  0  0  0  0
   -3.5262    3.1459    0.6627 H   0  0  0  0  0  0  0  0  0  0  0  0
   -3.3722   -2.6088   -0.7950 H   0  0  0  0  0  0  0  0  0  0  0  0
   -7.1703    0.0761    0.9401 H   0  0  0  0  0  0  0  0  0  0  0  0
    1.4896   -0.9881   -0.4678 H   0  0  0  0  0  0  0  0  0  0  0  0
    1.2661    2.6969   -0.6313 H   0  0  0  0  0  0  0  0  0  0  0  0
   -5.5689   -3.6552   -0.4284 H   0  0  0  0  0  0  0  0  0  0  0  0
   -0.1686    0.1079    0.2274 H   0  0  0  0  0  0  0  0  0  0  0  0
    3.6320    2.6849   -0.0031 H   0  0  0  0  0  0  0  0  0  0  0  0
   -7.4650   -2.3153    0.4378 H   0  0  0  0  0  0  0  0  0  0  0  0
    2.5127   -4.2504   -0.4818 H   0  0  0  0  0  0  0  0  0  0  0  0
    1.8859   -2.8985   -1.4131 H   0  0  0  0  0  0  0  0  0  0  0  0
    1.6748   -2.9791    0.3957 H   0  0  0  0  0  0  0  0  0  0  0  0
    7.4536   -1.8950    1.3271 H   0  0  0  0  0  0  0  0  0  0  0  0
    5.8193   -2.4958    1.6765 H   0  0  0  0  0  0  0  0  0  0  0  0
    6.2689   -0.8185    2.1010 H   0  0  0  0  0  0  0  0  0  0  0  0
  1 23  1  0  0  0  0
  2 16  1  0  0  0  0
  2 24  1  0  0  0  0
  3 22  1  0  0  0  0
  3 25  1  0  0  0  0
  4 14  2  0  0  0  0
  5  6  1  0  0  0  0
  5  8  1  0  0  0  0
  5 11  2  0  0  0  0
  6  9  1  0  0  0  0
  6 12  2  0  0  0  0
  7  8  2  0  0  0  0
  7 10  1  0  0  0  0
  7 14  1  0  0  0  0
  8 26  1  0  0  0  0
  9 10  2  0  0  0  0
  9 27  1  0  0  0  0
 10 28  1  0  0  0  0
 11 18  1  0  0  0  0
 11 29  1  0  0  0  0
 12 19  1  0  0  0  0
 12 30  1  0  0  0  0
 13 15  2  0  0  0  0
 13 17  1  0  0  0  0
 13 21  1  0  0  0  0
 14 20  1  0  0  0  0
 15 16  1  0  0  0  0
 15 31  1  0  0  0  0
 16 22  2  0  0  0  0
 17 20  2  0  0  0  0
 17 32  1  0  0  0  0
 18 19  2  0  0  0  0
 18 33  1  0  0  0  0
 19 36  1  0  0  0  0
 20 34  1  0  0  0  0
 21 23  2  0  0  0  0
 21 35  1  0  0  0  0
 22 23  1  0  0  0  0
 24 37  1  0  0  0  0
 24 38  1  0  0  0  0
 24 39  1  0  0  0  0
 25 40  1  0  0  0  0
 25 41  1  0  0  0  0
 25 42  1  0  0  0  0
M  END
> <PUBCHEM_COMPOUND_CID>
134141004

> <PUBCHEM_CONFORMER_RMSD>
0.8

> <PUBCHEM_CONFORMER_DIVERSEORDER>
11
55
57
17
37
48
22
2
33
35
18
30
28
46
23
52
12
8
38
54
1
56
43
25
27
6
15
29
10
36
14
31
24
4
50
32
16
13
59
42
9
45
34
3
19
20
41
5
21
53
44
7
40
26
39
47
49
58
51

> <PUBCHEM_MMFF94_PARTIAL_CHARGES>
34
1 -0.08
10 -0.15
11 -0.15
12 -0.15
13 0.03
14 0.47
15 -0.15
16 0.08
17 -0.18
18 -0.15
19 -0.15
2 -0.36
20 -0.14
21 -0.15
22 0.08
23 0.08
24 0.28
25 0.28
26 0.15
27 0.15
28 0.15
29 0.15
3 -0.36
30 0.15
31 0.15
32 0.15
33 0.15
34 0.15
35 0.15
36 0.15
4 -0.57
7 0.09
8 -0.15
9 -0.15

> <PUBCHEM_EFFECTIVE_ROTOR_COUNT>
5

> <PUBCHEM_PHARMACOPHORE_FEATURES>
7
1 1 hydrophobe
1 2 acceptor
1 3 acceptor
1 4 acceptor
6 13 15 16 21 22 23 rings
6 5 6 11 12 18 19 rings
6 5 6 7 8 9 10 rings

> <PUBCHEM_HEAVY_ATOM_COUNT>
25

> <PUBCHEM_ATOM_DEF_STEREO_COUNT>
0

> <PUBCHEM_ATOM_UDEF_STEREO_COUNT>
0

> <PUBCHEM_BOND_DEF_STEREO_COUNT>
1

> <PUBCHEM_BOND_UDEF_STEREO_COUNT>
0

> <PUBCHEM_ISOTOPIC_ATOM_COUNT>
0

> <PUBCHEM_COMPONENT_COUNT>
1

> <PUBCHEM_CACTVS_TAUTO_COUNT>
1

> <PUBCHEM_CONFORMER_ID>
07FED44C0000000B

> <PUBCHEM_MMFF94_ENERGY>
100.8252

> <PUBCHEM_FEATURE_SELFOVERLAP>
35.553

> <PUBCHEM_SHAPE_FINGERPRINT>
10595046 47 18409171047302203588
10622 236 17412731080473827567
10835480 77 18410004416981423069
10939801 23 18269836583259965150
11524674 6 16917351446247993415
117089 54 17974861876068108011
11963148 33 18335976554199525546
11991303 11 14057013740504329481
12107183 9 17765724524771572345
12166972 35 17458346355342926372
12596602 18 17704080594016884624
13402501 40 18409450310090922171
1361 2 18191589855407665204
14251732 16 18341049700643933480
14394314 77 18341338842617400193
1454969 45 18263367044084375828
15196674 1 18411420600594142389
15250474 111 18412544331869827735
15274700 208 16986586718961133064
15352361 1 18410013256202537157
15361156 5 17969805010973202572
15728490 51 18340486772455317212
15927050 60 17478892044701002028
16110190 28 18272371983832481775
16992610 120 18193567890724202468
17492 89 18267022752468589078
17780758 139 18202284693584193809
17857418 61 18410575097980523527
1813 80 17603594010388980653
20028762 73 18410854348344399938
21033648 29 14907914738880029513
21130935 74 18413107239031656402
21197605 99 18412266176971811110
21623969 137 18411704291906008918
21673915 165 18411420613584623799
23522609 53 18118998877750064612
23559900 14 18340760563888912457
239999 70 18059300860176361230
3004659 81 18040714783427314805
335352 9 18411418441486518365
3383291 50 18041565870680639611
338550 245 18409172129417210622
3663271 9 18343867718786220208
4073 2 18334582360068658115
437795 51 17417527051240834424
439807 62 18335138709116417531
4461854 278 17986124108576956327
463206 1 18265617756986517607
5104073 3 18272083886111451944
559249 180 18408040694152000281
6431902 208 18410292553736746031
6823239 73 17844544209883657870
7970288 3 18267020755762665431
999808 66 17822303439660080883

> <PUBCHEM_SHAPE_MULTIPOLES>
508.82
19.31
3.38
0.8
0.71
0.99
-0.12
5.9
-4.2
0.41
0.25
0.31
0.07
-0.58

> <PUBCHEM_SHAPE_SELFOVERLAP>
1086.432

> <PUBCHEM_SHAPE_VOLUME>
286.9

> <PUBCHEM_COORDINATE_TYPE>
2
5
10

$$$$