134134470
  -OEChem-03242010103D

 42 44  0     0  0  0  0  0  0999 V2000
    4.0034   -3.3179   -0.1467 Br  0  0  0  0  0  0  0  0  0  0  0  0
    5.8711    1.6084   -0.2995 O   0  0  0  0  0  0  0  0  0  0  0  0
    6.1825   -1.1225   -0.4684 O   0  0  0  0  0  0  0  0  0  0  0  0
   -1.3683    2.3115    1.1034 O   0  0  0  0  0  0  0  0  0  0  0  0
   -4.9526    0.4531   -0.1675 C   0  0  0  0  0  0  0  0  0  0  0  0
   -4.9887   -0.9572   -0.0557 C   0  0  0  0  0  0  0  0  0  0  0  0
   -2.5941    0.4283    0.4284 C   0  0  0  0  0  0  0  0  0  0  0  0
   -3.7473    1.1309    0.0779 C   0  0  0  0  0  0  0  0  0  0  0  0
   -3.8184   -1.6483    0.2981 C   0  0  0  0  0  0  0  0  0  0  0  0
   -2.6296   -0.9587    0.5383 C   0  0  0  0  0  0  0  0  0  0  0  0
   -6.1229    1.1443   -0.5211 C   0  0  0  0  0  0  0  0  0  0  0  0
   -6.1941   -1.6349   -0.3008 C   0  0  0  0  0  0  0  0  0  0  0  0
    2.4389    0.5057    0.3002 C   0  0  0  0  0  0  0  0  0  0  0  0
   -1.3544    1.1459    0.6796 C   0  0  0  0  0  0  0  0  0  0  0  0
    3.5452    1.3370    0.1250 C   0  0  0  0  0  0  0  0  0  0  0  0
    4.7994    0.7839   -0.1327 C   0  0  0  0  0  0  0  0  0  0  0  0
    1.1149    1.0913    0.5746 C   0  0  0  0  0  0  0  0  0  0  0  0
   -7.3118    0.4547   -0.7611 C   0  0  0  0  0  0  0  0  0  0  0  0
   -7.3474   -0.9322   -0.6512 C   0  0  0  0  0  0  0  0  0  0  0  0
   -0.0515    0.4571    0.3844 C   0  0  0  0  0  0  0  0  0  0  0  0
    2.5869   -0.8788    0.2176 C   0  0  0  0  0  0  0  0  0  0  0  0
    4.9475   -0.6006   -0.2152 C   0  0  0  0  0  0  0  0  0  0  0  0
    3.8412   -1.4320   -0.0401 C   0  0  0  0  0  0  0  0  0  0  0  0
    6.1481    2.0500   -1.6271 C   0  0  0  0  0  0  0  0  0  0  0  0
    7.0020   -1.4188    0.6595 C   0  0  0  0  0  0  0  0  0  0  0  0
   -3.7158    2.2157   -0.0118 H   0  0  0  0  0  0  0  0  0  0  0  0
   -3.8256   -2.7318    0.3975 H   0  0  0  0  0  0  0  0  0  0  0  0
   -1.7662   -1.5420    0.8443 H   0  0  0  0  0  0  0  0  0  0  0  0
   -6.1187    2.2284   -0.6130 H   0  0  0  0  0  0  0  0  0  0  0  0
   -6.2451   -2.7188   -0.2208 H   0  0  0  0  0  0  0  0  0  0  0  0
    3.4409    2.4181    0.1877 H   0  0  0  0  0  0  0  0  0  0  0  0
    1.1296    2.1072    0.9620 H   0  0  0  0  0  0  0  0  0  0  0  0
   -8.2099    1.0011   -1.0339 H   0  0  0  0  0  0  0  0  0  0  0  0
   -0.0915   -0.5328   -0.0511 H   0  0  0  0  0  0  0  0  0  0  0  0
    1.7471   -1.5508    0.3725 H   0  0  0  0  0  0  0  0  0  0  0  0
   -8.2732   -1.4684   -0.8382 H   0  0  0  0  0  0  0  0  0  0  0  0
    7.0340    2.6903   -1.5972 H   0  0  0  0  0  0  0  0  0  0  0  0
    5.3086    2.6319   -2.0205 H   0  0  0  0  0  0  0  0  0  0  0  0
    6.3544    1.1976   -2.2821 H   0  0  0  0  0  0  0  0  0  0  0  0
    7.8776   -1.9727    0.3100 H   0  0  0  0  0  0  0  0  0  0  0  0
    6.4701   -2.0330    1.3927 H   0  0  0  0  0  0  0  0  0  0  0  0
    7.3423   -0.4916    1.1311 H   0  0  0  0  0  0  0  0  0  0  0  0
  1 23  1  0  0  0  0
  2 16  1  0  0  0  0
  2 24  1  0  0  0  0
  3 22  1  0  0  0  0
  3 25  1  0  0  0  0
  4 14  2  0  0  0  0
  5  6  1  0  0  0  0
  5  8  1  0  0  0  0
  5 11  2  0  0  0  0
  6  9  1  0  0  0  0
  6 12  2  0  0  0  0
  7  8  2  0  0  0  0
  7 10  1  0  0  0  0
  7 14  1  0  0  0  0
  8 26  1  0  0  0  0
  9 10  2  0  0  0  0
  9 27  1  0  0  0  0
 10 28  1  0  0  0  0
 11 18  1  0  0  0  0
 11 29  1  0  0  0  0
 12 19  1  0  0  0  0
 12 30  1  0  0  0  0
 13 15  2  0  0  0  0
 13 17  1  0  0  0  0
 13 21  1  0  0  0  0
 14 20  1  0  0  0  0
 15 16  1  0  0  0  0
 15 31  1  0  0  0  0
 16 22  2  0  0  0  0
 17 20  2  0  0  0  0
 17 32  1  0  0  0  0
 18 19  2  0  0  0  0
 18 33  1  0  0  0  0
 19 36  1  0  0  0  0
 20 34  1  0  0  0  0
 21 23  2  0  0  0  0
 21 35  1  0  0  0  0
 22 23  1  0  0  0  0
 24 37  1  0  0  0  0
 24 38  1  0  0  0  0
 24 39  1  0  0  0  0
 25 40  1  0  0  0  0
 25 41  1  0  0  0  0
 25 42  1  0  0  0  0
M  END
> <PUBCHEM_COMPOUND_CID>
134134470

> <PUBCHEM_CONFORMER_RMSD>
0.8

> <PUBCHEM_CONFORMER_DIVERSEORDER>
2
25
27
42
23
26
46
15
17
35
51
11
24
45
19
37
41
4
52
36
29
38
21
22
14
8
53
1
34
40
12
30
47
13
31
5
16
44
18
6
32
10
39
7
9
20
33
43
50
54
28
49
48
3

> <PUBCHEM_MMFF94_PARTIAL_CHARGES>
34
1 -0.11
10 -0.15
11 -0.15
12 -0.15
13 0.03
14 0.47
15 -0.15
16 0.08
17 -0.18
18 -0.15
19 -0.15
2 -0.36
20 -0.14
21 -0.15
22 0.08
23 0.11
24 0.28
25 0.28
26 0.15
27 0.15
28 0.15
29 0.15
3 -0.36
30 0.15
31 0.15
32 0.15
33 0.15
34 0.15
35 0.15
36 0.15
4 -0.57
7 0.09
8 -0.15
9 -0.15

> <PUBCHEM_EFFECTIVE_ROTOR_COUNT>
5

> <PUBCHEM_PHARMACOPHORE_FEATURES>
7
1 1 hydrophobe
1 2 acceptor
1 3 acceptor
1 4 acceptor
6 13 15 16 21 22 23 rings
6 5 6 11 12 18 19 rings
6 5 6 7 8 9 10 rings

> <PUBCHEM_HEAVY_ATOM_COUNT>
25

> <PUBCHEM_ATOM_DEF_STEREO_COUNT>
0

> <PUBCHEM_ATOM_UDEF_STEREO_COUNT>
0

> <PUBCHEM_BOND_DEF_STEREO_COUNT>
1

> <PUBCHEM_BOND_UDEF_STEREO_COUNT>
0

> <PUBCHEM_ISOTOPIC_ATOM_COUNT>
0

> <PUBCHEM_COMPONENT_COUNT>
1

> <PUBCHEM_CACTVS_TAUTO_COUNT>
1

> <PUBCHEM_CONFORMER_ID>
07FEBAC600000002

> <PUBCHEM_MMFF94_ENERGY>
100.1249

> <PUBCHEM_FEATURE_SELFOVERLAP>
35.553

> <PUBCHEM_SHAPE_FINGERPRINT>
10299344 5 18343304764874973489
10595046 47 18411985736849733552
10835480 77 18334294313771320332
11204353 107 17983296229479005114
11315181 36 18131353020927724185
11524674 6 16128655276028749335
11719270 70 18413102854165868194
12107183 9 17620763786499801960
12236239 1 18408041818541959813
12516196 113 17989203763457413553
13288520 33 18343863338742120729
13533116 47 18342737390567355594
13668630 136 17847064363147803550
14251752 14 18334853901213261113
14251764 18 18130792270071242305
15064986 266 18261126153344872681
15082195 135 18262245533613328708
15183329 4 18408318865955806803
15250474 111 18342741776003459882
15348495 7 10591752204011717197
15537594 2 17918269878666167071
17492 89 17985270668953035518
17857418 61 18341331106869259218
18222031 100 16559032700814267104
18335252 98 18261398892595512571
19958102 18 18187077318047966287
20028762 73 18270398275042209038
21150785 3 17822289132865248877
21267235 1 18343868809480663347
22224240 67 14979951475865398764
23081809 10 18272658926028487617
23198884 109 17458343044477073961
23522609 53 18057353680138319617
23559900 14 18339918333354681577
255183 451 18054234233455859614
2838139 119 8646495090053243995
29717793 49 18409169896503448348
3004659 81 18334290963691054842
4073 2 17968100862434194827
4098825 35 18187641367249037397
4325135 7 18408887360759655492
439807 62 18412825785519173899
45377200 153 16343143669988639455
465052 167 17775286083781287741
504579 68 18410023134785723508
59755656 215 18410575063199376679
6138700 20 18413386523796728107
999808 66 18188499077341509619

> <PUBCHEM_SHAPE_MULTIPOLES>
502.82
22.15
2.52
0.91
7.73
1.1
-0.12
3.42
-6.16
-3.08
-0.18
-0.37
-0.3
-1.02

> <PUBCHEM_SHAPE_SELFOVERLAP>
1080.861

> <PUBCHEM_SHAPE_VOLUME>
285.4

> <PUBCHEM_COORDINATE_TYPE>
2
5
10

$$$$