6256073
  -OEChem-03242010103D

 42 44  0     0  0  0  0  0  0999 V2000
    6.2870    1.8108   -0.3405 Cl  0  0  0  0  0  0  0  0  0  0  0  0
    3.6437   -2.5193    0.3158 O   0  0  0  0  0  0  0  0  0  0  0  0
    6.0074   -1.1625   -0.0978 O   0  0  0  0  0  0  0  0  0  0  0  0
   -1.1922    3.1577    0.5882 O   0  0  0  0  0  0  0  0  0  0  0  0
   -3.9854   -0.6491    0.1343 C   0  0  0  0  0  0  0  0  0  0  0  0
   -5.0606    0.1176   -0.3746 C   0  0  0  0  0  0  0  0  0  0  0  0
   -2.5653    1.3254    0.0769 C   0  0  0  0  0  0  0  0  0  0  0  0
   -2.7442   -0.0300    0.3548 C   0  0  0  0  0  0  0  0  0  0  0  0
   -4.8628    1.4808   -0.6484 C   0  0  0  0  0  0  0  0  0  0  0  0
   -3.6227    2.0793   -0.4237 C   0  0  0  0  0  0  0  0  0  0  0  0
   -4.1832   -2.0122    0.4085 C   0  0  0  0  0  0  0  0  0  0  0  0
   -6.3018   -0.5015   -0.5950 C   0  0  0  0  0  0  0  0  0  0  0  0
    2.4506    0.9194    0.2395 C   0  0  0  0  0  0  0  0  0  0  0  0
   -1.2739    1.9513    0.3112 C   0  0  0  0  0  0  0  0  0  0  0  0
    2.4451   -0.4628    0.3356 C   0  0  0  0  0  0  0  0  0  0  0  0
    3.6477   -1.1600    0.2215 C   0  0  0  0  0  0  0  0  0  0  0  0
    1.1800    1.6556    0.3607 C   0  0  0  0  0  0  0  0  0  0  0  0
   -5.4231   -2.6109    0.1835 C   0  0  0  0  0  0  0  0  0  0  0  0
   -6.4802   -1.8572   -0.3174 C   0  0  0  0  0  0  0  0  0  0  0  0
   -0.0331    1.1131    0.1801 C   0  0  0  0  0  0  0  0  0  0  0  0
    3.6260    1.6231    0.0325 C   0  0  0  0  0  0  0  0  0  0  0  0
    4.8395   -0.4659    0.0128 C   0  0  0  0  0  0  0  0  0  0  0  0
    4.8286    0.9256   -0.0817 C   0  0  0  0  0  0  0  0  0  0  0  0
    2.3826   -3.1502    0.5294 C   0  0  0  0  0  0  0  0  0  0  0  0
    6.3904   -1.5780   -1.4062 C   0  0  0  0  0  0  0  0  0  0  0  0
   -1.9432   -0.6284    0.7828 H   0  0  0  0  0  0  0  0  0  0  0  0
   -5.6750    2.0891   -1.0412 H   0  0  0  0  0  0  0  0  0  0  0  0
   -3.5016    3.1356   -0.6502 H   0  0  0  0  0  0  0  0  0  0  0  0
   -3.3713   -2.6214    0.8003 H   0  0  0  0  0  0  0  0  0  0  0  0
   -7.1422    0.0683   -0.9858 H   0  0  0  0  0  0  0  0  0  0  0  0
    1.5120   -0.9739    0.5311 H   0  0  0  0  0  0  0  0  0  0  0  0
    1.2754    2.7057    0.6268 H   0  0  0  0  0  0  0  0  0  0  0  0
   -5.5627   -3.6662    0.3995 H   0  0  0  0  0  0  0  0  0  0  0  0
   -0.1549    0.0876   -0.1429 H   0  0  0  0  0  0  0  0  0  0  0  0
    3.6170    2.7082   -0.0425 H   0  0  0  0  0  0  0  0  0  0  0  0
   -7.4452   -2.3240   -0.4925 H   0  0  0  0  0  0  0  0  0  0  0  0
    1.9477   -2.8690    1.4947 H   0  0  0  0  0  0  0  0  0  0  0  0
    2.5668   -4.2290    0.5695 H   0  0  0  0  0  0  0  0  0  0  0  0
    1.6962   -2.9789   -0.3071 H   0  0  0  0  0  0  0  0  0  0  0  0
    7.3751   -2.0489   -1.3410 H   0  0  0  0  0  0  0  0  0  0  0  0
    6.4565   -0.7251   -2.0888 H   0  0  0  0  0  0  0  0  0  0  0  0
    5.6785   -2.3122   -1.7963 H   0  0  0  0  0  0  0  0  0  0  0  0
  1 23  1  0  0  0  0
  2 16  1  0  0  0  0
  2 24  1  0  0  0  0
  3 22  1  0  0  0  0
  3 25  1  0  0  0  0
  4 14  2  0  0  0  0
  5  6  1  0  0  0  0
  5  8  1  0  0  0  0
  5 11  2  0  0  0  0
  6  9  1  0  0  0  0
  6 12  2  0  0  0  0
  7  8  2  0  0  0  0
  7 10  1  0  0  0  0
  7 14  1  0  0  0  0
  8 26  1  0  0  0  0
  9 10  2  0  0  0  0
  9 27  1  0  0  0  0
 10 28  1  0  0  0  0
 11 18  1  0  0  0  0
 11 29  1  0  0  0  0
 12 19  1  0  0  0  0
 12 30  1  0  0  0  0
 13 15  2  0  0  0  0
 13 17  1  0  0  0  0
 13 21  1  0  0  0  0
 14 20  1  0  0  0  0
 15 16  1  0  0  0  0
 15 31  1  0  0  0  0
 16 22  2  0  0  0  0
 17 20  2  0  0  0  0
 17 32  1  0  0  0  0
 18 19  2  0  0  0  0
 18 33  1  0  0  0  0
 19 36  1  0  0  0  0
 20 34  1  0  0  0  0
 21 23  2  0  0  0  0
 21 35  1  0  0  0  0
 22 23  1  0  0  0  0
 24 37  1  0  0  0  0
 24 38  1  0  0  0  0
 24 39  1  0  0  0  0
 25 40  1  0  0  0  0
 25 41  1  0  0  0  0
 25 42  1  0  0  0  0
M  END
> <PUBCHEM_COMPOUND_CID>
6256073

> <PUBCHEM_CONFORMER_RMSD>
0.8

> <PUBCHEM_CONFORMER_DIVERSEORDER>
10
58
28
54
5
44
35
18
12
42
56
7
41
49
50
2
38
17
57
22
24
13
31
15
1
26
27
39
55
34
16
37
47
21
29
30
25
20
43
6
23
19
33
14
51
3
52
40
11
48
9
53
4
45
46
8
36
32

> <PUBCHEM_MMFF94_PARTIAL_CHARGES>
34
1 -0.18
10 -0.15
11 -0.15
12 -0.15
13 0.03
14 0.47
15 -0.15
16 0.08
17 -0.18
18 -0.15
19 -0.15
2 -0.36
20 -0.14
21 -0.15
22 0.08
23 0.18
24 0.28
25 0.28
26 0.15
27 0.15
28 0.15
29 0.15
3 -0.36
30 0.15
31 0.15
32 0.15
33 0.15
34 0.15
35 0.15
36 0.15
4 -0.57
7 0.09
8 -0.15
9 -0.15

> <PUBCHEM_EFFECTIVE_ROTOR_COUNT>
5

> <PUBCHEM_PHARMACOPHORE_FEATURES>
6
1 2 acceptor
1 3 acceptor
1 4 acceptor
6 13 15 16 21 22 23 rings
6 5 6 11 12 18 19 rings
6 5 6 7 8 9 10 rings

> <PUBCHEM_HEAVY_ATOM_COUNT>
25

> <PUBCHEM_ATOM_DEF_STEREO_COUNT>
0

> <PUBCHEM_ATOM_UDEF_STEREO_COUNT>
0

> <PUBCHEM_BOND_DEF_STEREO_COUNT>
1

> <PUBCHEM_BOND_UDEF_STEREO_COUNT>
0

> <PUBCHEM_ISOTOPIC_ATOM_COUNT>
0

> <PUBCHEM_COMPONENT_COUNT>
1

> <PUBCHEM_CACTVS_TAUTO_COUNT>
1

> <PUBCHEM_CONFORMER_ID>
005F75C90000000A

> <PUBCHEM_MMFF94_ENERGY>
99.4169

> <PUBCHEM_FEATURE_SELFOVERLAP>
30.479

> <PUBCHEM_SHAPE_FINGERPRINT>
10595046 47 18408604747263462568
10835480 77 18409438194273484589
11135609 99 18413667998942380654
11443803 9 18043248141257666472
11524674 6 16773799229779899359
11578080 2 16952228947651386767
117089 54 17771075895431261638
11719270 70 18409721864558108810
11796584 16 18270681952524012317
12107183 9 17619067231173134593
12516196 113 18272367615845804745
12596602 18 17561367287661559498
12760667 363 18342738542499273009
13402501 40 18410856594374594115
13631057 29 18413108346890566984
14461889 52 18340479084643277392
14866123 147 18270120094663623865
14931854 50 18187361004700972303
15082195 135 18042135421861585716
15183329 4 18335415751829069659
15196674 1 18410009927207354297
15250474 111 18191862332074028146
15352361 1 18410854378318675241
15537594 2 18059289967300489407
15799311 1 18339376179616556769
15927050 60 17478609470027884756
16993438 75 17751369592759402795
17492 89 18268427932544830122
17857418 61 18409445890901474747
18681886 176 18335699503249964072
20028762 73 18342458106863327014
20281389 69 9295291642220464741
21033650 10 17168418264888437477
21054139 6 18334017160291156906
21267235 1 18412831282554936797
21623969 137 17703794721267911030
22393880 68 18334288734608413224
23424784 1240 18272381831918724223
23522609 53 18054822630367959473
23559900 14 18337664334697153505
239999 70 18271808995820297854
25222932 49 18272081742505890519
2838139 119 8935009148699553609
3004659 81 18187361038711973064
329604 57 18411138051854632136
335352 9 18410005569086998301
4073 2 18260552233780986481
437795 51 17631446942629893224
439807 62 18407759244517923091
46194498 28 17531524398890244197
463206 1 18267021842030636771
465052 167 18060140963646856060
484989 97 18411146861703137298
497634 4 18408604734516016397
5104073 3 18202279182434375784
59682541 35 18130774691060289776
59755656 215 18335138695772949826
6431902 208 18409165549981077731
999808 66 18041571338479364475

> <PUBCHEM_SHAPE_MULTIPOLES>
498.75
18.56
3.32
0.8
1.02
0.89
0.13
7.47
4.44
-0.15
-0.32
0.29
0.1
0.51

> <PUBCHEM_SHAPE_SELFOVERLAP>
1080.256

> <PUBCHEM_SHAPE_VOLUME>
274.9

> <PUBCHEM_COORDINATE_TYPE>
2
5
10

$$$$